
*** ChampSim Multicore Out-of-Order Simulator ***

Warmup Instructions: 40000000
Simulation Instructions: 100000000
Number of CPUs: 1
Off-chip DRAM Size: 4 GiB Channels: 1 Width: 64-bit Data Rate: 3200 MT/s

VirtualMemory physical capacity: 4293914624 num_ppages: 1048319
VirtualMemory page size: 4096 log2_page_size: 12

CPU 0 runs ../../../../ICS/traces//MIS_17000M.champsim.xz
CPU 0 Bimodal branch predictor
Basic BTB sets: 1024 ways: 8 indirect buffer size: 4096 RAS size: 64
Heartbeat CPU 0 instructions: 10000002 cycles: 2686378 heartbeat IPC: 3.72249 cumulative IPC: 3.72249 (Simulation time: 0 hr 0 min 51 sec) 
Heartbeat CPU 0 instructions: 20000002 cycles: 5228127 heartbeat IPC: 3.9343 cumulative IPC: 3.82546 (Simulation time: 0 hr 1 min 40 sec) 
Heartbeat CPU 0 instructions: 30000003 cycles: 7831584 heartbeat IPC: 3.84105 cumulative IPC: 3.83064 (Simulation time: 0 hr 2 min 30 sec) 
Heartbeat CPU 0 instructions: 40000002 cycles: 10523822 heartbeat IPC: 3.71438 cumulative IPC: 3.8009 (Simulation time: 0 hr 3 min 24 sec) 

Warmup complete CPU 0 instructions: 40000002 cycles: 10523822 (Simulation time: 0 hr 3 min 24 sec) 

Heartbeat CPU 0 instructions: 50000003 cycles: 13249055 heartbeat IPC: 3.66941 cumulative IPC: 3.66941 (Simulation time: 0 hr 4 min 30 sec) 
Heartbeat CPU 0 instructions: 60000000 cycles: 21470689 heartbeat IPC: 1.2163 cumulative IPC: 1.82701 (Simulation time: 0 hr 6 min 16 sec) 
Heartbeat CPU 0 instructions: 70000001 cycles: 25537941 heartbeat IPC: 2.45866 cumulative IPC: 1.99812 (Simulation time: 0 hr 7 min 19 sec) 
Heartbeat CPU 0 instructions: 80000000 cycles: 32958997 heartbeat IPC: 1.34752 cumulative IPC: 1.78291 (Simulation time: 0 hr 8 min 34 sec) 
Heartbeat CPU 0 instructions: 90000004 cycles: 36696993 heartbeat IPC: 2.67523 cumulative IPC: 1.91035 (Simulation time: 0 hr 9 min 25 sec) 
Heartbeat CPU 0 instructions: 100000004 cycles: 43108604 heartbeat IPC: 1.55967 cumulative IPC: 1.84135 (Simulation time: 0 hr 10 min 35 sec) 
Heartbeat CPU 0 instructions: 110000000 cycles: 48126729 heartbeat IPC: 1.99278 cumulative IPC: 1.86156 (Simulation time: 0 hr 11 min 31 sec) 
Heartbeat CPU 0 instructions: 120000000 cycles: 53538572 heartbeat IPC: 1.8478 cumulative IPC: 1.85983 (Simulation time: 0 hr 12 min 34 sec) 
Heartbeat CPU 0 instructions: 130000001 cycles: 57612925 heartbeat IPC: 2.45438 cumulative IPC: 1.91127 (Simulation time: 0 hr 13 min 28 sec) 
Heartbeat CPU 0 instructions: 140000001 cycles: 62672271 heartbeat IPC: 1.97654 cumulative IPC: 1.9176 (Simulation time: 0 hr 14 min 29 sec) 
Finished CPU 0 instructions: 100000004 cycles: 52148450 cumulative IPC: 1.9176 (Simulation time: 0 hr 14 min 29 sec) 

ChampSim completed all CPUs

Region of Interest Statistics

CPU 0 cumulative IPC: 1.9176 instructions: 100000004 cycles: 52148450
cpu0_DTLB TOTAL     ACCESS:   24539641  HIT:   24485746  MISS:      53895
cpu0_DTLB LOAD      ACCESS:   13013535  HIT:   12995344  MISS:      18191
cpu0_DTLB RFO       ACCESS:   11526106  HIT:   11490402  MISS:      35704
cpu0_DTLB PREFETCH  ACCESS:          0  HIT:          0  MISS:          0
cpu0_DTLB WRITEBACK ACCESS:          0  HIT:          0  MISS:          0
cpu0_DTLB TRANSLATION ACCESS:          0  HIT:          0  MISS:          0
cpu0_DTLB PREFETCH  REQUESTED:          0  ISSUED:          0  USEFUL:          0  USELESS:          0
cpu0_DTLB AVERAGE MISS LATENCY: 32.0854 cycles
cpu0_DTLB MSHR FULL EVENTS: 27523 MSHR MERGE EVENTS: 145838
cpu0_ITLB TOTAL     ACCESS:    1580070  HIT:    1580070  MISS:          0
cpu0_ITLB LOAD      ACCESS:    1580070  HIT:    1580070  MISS:          0
cpu0_ITLB RFO       ACCESS:          0  HIT:          0  MISS:          0
cpu0_ITLB PREFETCH  ACCESS:          0  HIT:          0  MISS:          0
cpu0_ITLB WRITEBACK ACCESS:          0  HIT:          0  MISS:          0
cpu0_ITLB TRANSLATION ACCESS:          0  HIT:          0  MISS:          0
cpu0_ITLB PREFETCH  REQUESTED:          0  ISSUED:          0  USEFUL:          0  USELESS:          0
cpu0_ITLB AVERAGE MISS LATENCY: -nan cycles
cpu0_ITLB MSHR FULL EVENTS: 0 MSHR MERGE EVENTS: 0
cpu0_L1I TOTAL     ACCESS:        402  HIT:        402  MISS:          0
cpu0_L1I LOAD      ACCESS:        402  HIT:        402  MISS:          0
cpu0_L1I RFO       ACCESS:          0  HIT:          0  MISS:          0
cpu0_L1I PREFETCH  ACCESS:          0  HIT:          0  MISS:          0
cpu0_L1I WRITEBACK ACCESS:          0  HIT:          0  MISS:          0
cpu0_L1I TRANSLATION ACCESS:          0  HIT:          0  MISS:          0
cpu0_L1I PREFETCH  REQUESTED:          0  ISSUED:          0  USEFUL:          0  USELESS:          0
cpu0_L1I AVERAGE MISS LATENCY: -nan cycles
cpu0_L1I MSHR FULL EVENTS: 0 MSHR MERGE EVENTS: 0
cpu0_STLB TOTAL     ACCESS:      53895  HIT:      41740  MISS:      12155
cpu0_STLB LOAD      ACCESS:      18191  HIT:      12387  MISS:       5804
cpu0_STLB RFO       ACCESS:      35704  HIT:      29353  MISS:       6351
cpu0_STLB PREFETCH  ACCESS:          0  HIT:          0  MISS:          0
cpu0_STLB WRITEBACK ACCESS:          0  HIT:          0  MISS:          0
cpu0_STLB TRANSLATION ACCESS:          0  HIT:          0  MISS:          0
cpu0_STLB PREFETCH  REQUESTED:          0  ISSUED:          0  USEFUL:          0  USELESS:          0
cpu0_STLB AVERAGE MISS LATENCY: 103.532 cycles
cpu0_STLB MSHR FULL EVENTS: 0 MSHR MERGE EVENTS: 0
cpu0_L1D TOTAL     ACCESS:   25336193  HIT:   22864051  MISS:    2472142
cpu0_L1D LOAD      ACCESS:    8554995  HIT:    7180386  MISS:    1374609
cpu0_L1D RFO       ACCESS:   16770904  HIT:   15674667  MISS:    1096237
cpu0_L1D PREFETCH  ACCESS:          0  HIT:          0  MISS:          0
cpu0_L1D WRITEBACK ACCESS:          0  HIT:          0  MISS:          0
cpu0_L1D TRANSLATION ACCESS:      10294  HIT:       8998  MISS:       1296
cpu0_L1D PREFETCH  REQUESTED:          0  ISSUED:          0  USEFUL:          0  USELESS:          0
cpu0_L1D AVERAGE MISS LATENCY: 164.578 cycles
cpu0_L1D MSHR FULL EVENTS: 20310314 MSHR MERGE EVENTS: 5328469
cpu0_L2C TOTAL     ACCESS:    3570812  HIT:    1559918  MISS:    2010857
cpu0_L2C LOAD      ACCESS:    1374588  HIT:     396265  MISS:     978323
cpu0_L2C RFO       ACCESS:    1096115  HIT:      63651  MISS:    1032464
cpu0_L2C PREFETCH  ACCESS:          0  HIT:          0  MISS:          0
cpu0_L2C WRITEBACK ACCESS:    1098813  HIT:    1098776  MISS:         37
cpu0_L2C TRANSLATION ACCESS:       1296  HIT:       1226  MISS:         70
cpu0_L2C PREFETCH  REQUESTED:          0  ISSUED:          0  USEFUL:          0  USELESS:          0
cpu0_L2C AVERAGE MISS LATENCY: 201.316 cycles
cpu0_L2C MSHR FULL EVENTS: 1048226 MSHR MERGE EVENTS: 0
LLC TOTAL     ACCESS:    4021739  HIT:    1551474  MISS:     459379
LLC LOAD      ACCESS:     978312  HIT:     763842  MISS:     214470
LLC RFO       ACCESS:    1032464  HIT:     787558  MISS:     244906
LLC PREFETCH  ACCESS:          0  HIT:          0  MISS:          0
LLC WRITEBACK ACCESS:    2010893  HIT:          7  MISS:    2010886
LLC TRANSLATION ACCESS:         70  HIT:         67  MISS:          3
LLC PREFETCH  REQUESTED:          0  ISSUED:          0  USEFUL:          0  USELESS:          0
LLC AVERAGE MISS LATENCY: 709.137 cycles
LLC MSHR FULL EVENTS: 0 MSHR MERGE EVENTS: 0
blocks bypassed = 0
blocks filled to llc = 0

DRAM Statistics
 CHANNEL 0
 RQ ROW_BUFFER_HIT:      97776  ROW_BUFFER_MISS:     361603
 DBUS AVG_CONGESTED_CYCLE:    3.97379
 WQ ROW_BUFFER_HIT:      26028  ROW_BUFFER_MISS:     260310  FULL:    1227140


CPU 0 Branch Prediction Accuracy: 98.3856% MPKI: 1.63501 Average ROB Occupancy at Mispredict: 164.416
Branch type MPKI
BRANCH_DIRECT_JUMP: 0
BRANCH_INDIRECT: 0
BRANCH_CONDITIONAL: 1.635
BRANCH_DIRECT_CALL: 0
BRANCH_INDIRECT_CALL: 0
BRANCH_RETURN: 1e-05

