
*** ChampSim Multicore Out-of-Order Simulator ***

Warmup Instructions: 40000000
Simulation Instructions: 100000000
Number of CPUs: 1
Off-chip DRAM Size: 4 GiB Channels: 1 Width: 64-bit Data Rate: 3200 MT/s

VirtualMemory physical capacity: 4293914624 num_ppages: 1048319
VirtualMemory page size: 4096 log2_page_size: 12

CPU 0 runs ../../../../ICS/traces//Radii_36000M.champsim.xz
CPU 0 Bimodal branch predictor
Basic BTB sets: 1024 ways: 8 indirect buffer size: 4096 RAS size: 64
Heartbeat CPU 0 instructions: 10000000 cycles: 3369148 heartbeat IPC: 2.96811 cumulative IPC: 2.96811 (Simulation time: 0 hr 1 min 8 sec) 
Heartbeat CPU 0 instructions: 20000002 cycles: 6754470 heartbeat IPC: 2.95393 cumulative IPC: 2.961 (Simulation time: 0 hr 2 min 15 sec) 
Heartbeat CPU 0 instructions: 30000000 cycles: 10167992 heartbeat IPC: 2.92952 cumulative IPC: 2.95044 (Simulation time: 0 hr 3 min 26 sec) 
Heartbeat CPU 0 instructions: 40000000 cycles: 13584254 heartbeat IPC: 2.92718 cumulative IPC: 2.94459 (Simulation time: 0 hr 4 min 35 sec) 

Warmup complete CPU 0 instructions: 40000002 cycles: 13584255 (Simulation time: 0 hr 4 min 35 sec) 

Heartbeat CPU 0 instructions: 50000003 cycles: 49108731 heartbeat IPC: 0.281496 cumulative IPC: 0.281496 (Simulation time: 0 hr 6 min 33 sec) 
Heartbeat CPU 0 instructions: 60000003 cycles: 82417697 heartbeat IPC: 0.300219 cumulative IPC: 0.290556 (Simulation time: 0 hr 8 min 30 sec) 
Heartbeat CPU 0 instructions: 70000003 cycles: 120638877 heartbeat IPC: 0.261635 cumulative IPC: 0.280231 (Simulation time: 0 hr 10 min 20 sec) 
Heartbeat CPU 0 instructions: 80000004 cycles: 162424503 heartbeat IPC: 0.239317 cumulative IPC: 0.268745 (Simulation time: 0 hr 11 min 58 sec) 
Heartbeat CPU 0 instructions: 90000003 cycles: 205256022 heartbeat IPC: 0.233473 cumulative IPC: 0.260863 (Simulation time: 0 hr 13 min 41 sec) 
Heartbeat CPU 0 instructions: 100000004 cycles: 247206106 heartbeat IPC: 0.238379 cumulative IPC: 0.256825 (Simulation time: 0 hr 15 min 22 sec) 
Heartbeat CPU 0 instructions: 110000001 cycles: 289410543 heartbeat IPC: 0.236942 cumulative IPC: 0.253783 (Simulation time: 0 hr 16 min 29 sec) 
Heartbeat CPU 0 instructions: 120000002 cycles: 330374579 heartbeat IPC: 0.244117 cumulative IPC: 0.252533 (Simulation time: 0 hr 17 min 58 sec) 
Heartbeat CPU 0 instructions: 130000001 cycles: 369806522 heartbeat IPC: 0.253601 cumulative IPC: 0.252651 (Simulation time: 0 hr 19 min 44 sec) 
Heartbeat CPU 0 instructions: 140000002 cycles: 382032402 heartbeat IPC: 0.817937 cumulative IPC: 0.271409 (Simulation time: 0 hr 20 min 47 sec) 
Finished CPU 0 instructions: 100000000 cycles: 368448147 cumulative IPC: 0.271409 (Simulation time: 0 hr 20 min 47 sec) 

ChampSim completed all CPUs

Region of Interest Statistics

CPU 0 cumulative IPC: 0.271409 instructions: 100000000 cycles: 368448147
cpu0_DTLB TOTAL     ACCESS:   27854860  HIT:   25146239  MISS:    2708621
cpu0_DTLB LOAD      ACCESS:   23341702  HIT:   20653979  MISS:    2687723
cpu0_DTLB RFO       ACCESS:    4513158  HIT:    4492260  MISS:      20898
cpu0_DTLB PREFETCH  ACCESS:          0  HIT:          0  MISS:          0
cpu0_DTLB WRITEBACK ACCESS:          0  HIT:          0  MISS:          0
cpu0_DTLB TRANSLATION ACCESS:          0  HIT:          0  MISS:          0
cpu0_DTLB PREFETCH  REQUESTED:          0  ISSUED:          0  USEFUL:          0  USELESS:          0
cpu0_DTLB AVERAGE MISS LATENCY: 12.1495 cycles
cpu0_DTLB MSHR FULL EVENTS: 26589 MSHR MERGE EVENTS: 119536
cpu0_ITLB TOTAL     ACCESS:   10151375  HIT:   10151369  MISS:          6
cpu0_ITLB LOAD      ACCESS:   10151375  HIT:   10151369  MISS:          6
cpu0_ITLB RFO       ACCESS:          0  HIT:          0  MISS:          0
cpu0_ITLB PREFETCH  ACCESS:          0  HIT:          0  MISS:          0
cpu0_ITLB WRITEBACK ACCESS:          0  HIT:          0  MISS:          0
cpu0_ITLB TRANSLATION ACCESS:          0  HIT:          0  MISS:          0
cpu0_ITLB PREFETCH  REQUESTED:          0  ISSUED:          0  USEFUL:          0  USELESS:          0
cpu0_ITLB AVERAGE MISS LATENCY: 280 cycles
cpu0_ITLB MSHR FULL EVENTS: 0 MSHR MERGE EVENTS: 0
cpu0_L1I TOTAL     ACCESS:        106  HIT:         55  MISS:         51
cpu0_L1I LOAD      ACCESS:        106  HIT:         55  MISS:         51
cpu0_L1I RFO       ACCESS:          0  HIT:          0  MISS:          0
cpu0_L1I PREFETCH  ACCESS:          0  HIT:          0  MISS:          0
cpu0_L1I WRITEBACK ACCESS:          0  HIT:          0  MISS:          0
cpu0_L1I TRANSLATION ACCESS:          0  HIT:          0  MISS:          0
cpu0_L1I PREFETCH  REQUESTED:          0  ISSUED:          0  USEFUL:          0  USELESS:          0
cpu0_L1I AVERAGE MISS LATENCY: 179.353 cycles
cpu0_L1I MSHR FULL EVENTS: 0 MSHR MERGE EVENTS: 0
cpu0_STLB TOTAL     ACCESS:    2708627  HIT:    2322724  MISS:     385903
cpu0_STLB LOAD      ACCESS:    2687729  HIT:    2305772  MISS:     381957
cpu0_STLB RFO       ACCESS:      20898  HIT:      16952  MISS:       3946
cpu0_STLB PREFETCH  ACCESS:          0  HIT:          0  MISS:          0
cpu0_STLB WRITEBACK ACCESS:          0  HIT:          0  MISS:          0
cpu0_STLB TRANSLATION ACCESS:          0  HIT:          0  MISS:          0
cpu0_STLB PREFETCH  REQUESTED:          0  ISSUED:          0  USEFUL:          0  USELESS:          0
cpu0_STLB AVERAGE MISS LATENCY: 22.4223 cycles
cpu0_STLB MSHR FULL EVENTS: 0 MSHR MERGE EVENTS: 0
cpu0_L1D TOTAL     ACCESS:   26268823  HIT:   21726919  MISS:    4541904
cpu0_L1D LOAD      ACCESS:   21011511  HIT:   16508166  MISS:    4503345
cpu0_L1D RFO       ACCESS:    4882352  HIT:    4854346  MISS:      28006
cpu0_L1D PREFETCH  ACCESS:          0  HIT:          0  MISS:          0
cpu0_L1D WRITEBACK ACCESS:          0  HIT:          0  MISS:          0
cpu0_L1D TRANSLATION ACCESS:     374960  HIT:     364407  MISS:      10553
cpu0_L1D PREFETCH  REQUESTED:          0  ISSUED:          0  USEFUL:          0  USELESS:          0
cpu0_L1D AVERAGE MISS LATENCY: 96.6133 cycles
cpu0_L1D MSHR FULL EVENTS: 55460 MSHR MERGE EVENTS: 1317770
cpu0_L2C TOTAL     ACCESS:    4828169  HIT:     896419  MISS:    3931741
cpu0_L2C LOAD      ACCESS:    4503396  HIT:     599901  MISS:    3903495
cpu0_L2C RFO       ACCESS:      28006  HIT:         11  MISS:      27995
cpu0_L2C PREFETCH  ACCESS:          0  HIT:          0  MISS:          0
cpu0_L2C WRITEBACK ACCESS:     286214  HIT:     286205  MISS:          9
cpu0_L2C TRANSLATION ACCESS:      10553  HIT:      10302  MISS:        251
cpu0_L2C PREFETCH  REQUESTED:          0  ISSUED:          0  USEFUL:          0  USELESS:          0
cpu0_L2C AVERAGE MISS LATENCY: 99.8161 cycles
cpu0_L2C MSHR FULL EVENTS: 0 MSHR MERGE EVENTS: 0
LLC TOTAL     ACCESS:    7863487  HIT:    2023759  MISS:    1907982
LLC LOAD      ACCESS:    3903492  HIT:    2023512  MISS:    1879980
LLC RFO       ACCESS:      27995  HIT:          0  MISS:      27995
LLC PREFETCH  ACCESS:          0  HIT:          0  MISS:          0
LLC WRITEBACK ACCESS:    3931749  HIT:          3  MISS:    3931746
LLC TRANSLATION ACCESS:        251  HIT:        244  MISS:          7
LLC PREFETCH  REQUESTED:          0  ISSUED:          0  USEFUL:          0  USELESS:          0
LLC AVERAGE MISS LATENCY: 163.413 cycles
LLC MSHR FULL EVENTS: 0 MSHR MERGE EVENTS: 0
blocks bypassed = 0
blocks filled to llc = 0

DRAM Statistics
 CHANNEL 0
 RQ ROW_BUFFER_HIT:     124641  ROW_BUFFER_MISS:    1783341
 DBUS AVG_CONGESTED_CYCLE:    3.68144
 WQ ROW_BUFFER_HIT:     167166  ROW_BUFFER_MISS:     116477  FULL:          0


CPU 0 Branch Prediction Accuracy: 85.1756% MPKI: 36.0741 Average ROB Occupancy at Mispredict: 25.1202
Branch type MPKI
BRANCH_DIRECT_JUMP: 9e-05
BRANCH_INDIRECT: 0
BRANCH_CONDITIONAL: 36.0739
BRANCH_DIRECT_CALL: 7e-05
BRANCH_INDIRECT_CALL: 0
BRANCH_RETURN: 6e-05

