
*** ChampSim Multicore Out-of-Order Simulator ***

Warmup Instructions: 40000000
Simulation Instructions: 100000000
Number of CPUs: 1
Off-chip DRAM Size: 4 GiB Channels: 1 Width: 64-bit Data Rate: 3200 MT/s

VirtualMemory physical capacity: 4293914624 num_ppages: 1048319
VirtualMemory page size: 4096 log2_page_size: 12

CPU 0 runs ../../../../ICS/traces//bc-5.trace.gz
CPU 0 Bimodal branch predictor
Basic BTB sets: 1024 ways: 8 indirect buffer size: 4096 RAS size: 64
Heartbeat CPU 0 instructions: 10000001 cycles: 3320908 heartbeat IPC: 3.01122 cumulative IPC: 3.01122 (Simulation time: 0 hr 0 min 52 sec) 
Heartbeat CPU 0 instructions: 20000003 cycles: 6147639 heartbeat IPC: 3.53766 cumulative IPC: 3.25328 (Simulation time: 0 hr 1 min 38 sec) 
Heartbeat CPU 0 instructions: 30000001 cycles: 8982826 heartbeat IPC: 3.5271 cumulative IPC: 3.33971 (Simulation time: 0 hr 2 min 23 sec) 
Heartbeat CPU 0 instructions: 40000001 cycles: 11828408 heartbeat IPC: 3.51422 cumulative IPC: 3.38169 (Simulation time: 0 hr 3 min 8 sec) 

Warmup complete CPU 0 instructions: 40000001 cycles: 11828408 (Simulation time: 0 hr 3 min 8 sec) 

Heartbeat CPU 0 instructions: 50000000 cycles: 25529472 heartbeat IPC: 0.72987 cumulative IPC: 0.72987 (Simulation time: 0 hr 4 min 7 sec) 
Heartbeat CPU 0 instructions: 60000000 cycles: 38463891 heartbeat IPC: 0.773131 cumulative IPC: 0.750878 (Simulation time: 0 hr 5 min 18 sec) 
Heartbeat CPU 0 instructions: 70000004 cycles: 51206306 heartbeat IPC: 0.784781 cumulative IPC: 0.761849 (Simulation time: 0 hr 6 min 40 sec) 
Heartbeat CPU 0 instructions: 80000003 cycles: 63319793 heartbeat IPC: 0.825526 cumulative IPC: 0.776829 (Simulation time: 0 hr 8 min 1 sec) 
Heartbeat CPU 0 instructions: 90000000 cycles: 75318467 heartbeat IPC: 0.833425 cumulative IPC: 0.787525 (Simulation time: 0 hr 9 min 23 sec) 
Heartbeat CPU 0 instructions: 100000002 cycles: 86749925 heartbeat IPC: 0.874779 cumulative IPC: 0.800838 (Simulation time: 0 hr 10 min 44 sec) 
Heartbeat CPU 0 instructions: 110000003 cycles: 98436517 heartbeat IPC: 0.855682 cumulative IPC: 0.808238 (Simulation time: 0 hr 12 min 4 sec) 
Heartbeat CPU 0 instructions: 120000003 cycles: 110014705 heartbeat IPC: 0.863693 cumulative IPC: 0.814778 (Simulation time: 0 hr 13 min 22 sec) 
Heartbeat CPU 0 instructions: 130000004 cycles: 121612646 heartbeat IPC: 0.862222 cumulative IPC: 0.81979 (Simulation time: 0 hr 14 min 47 sec) 
Heartbeat CPU 0 instructions: 140000003 cycles: 133401714 heartbeat IPC: 0.848243 cumulative IPC: 0.822549 (Simulation time: 0 hr 16 min 15 sec) 
Finished CPU 0 instructions: 100000002 cycles: 121573306 cumulative IPC: 0.822549 (Simulation time: 0 hr 16 min 15 sec) 

ChampSim completed all CPUs

Region of Interest Statistics

CPU 0 cumulative IPC: 0.822549 instructions: 100000002 cycles: 121573306
cpu0_DTLB TOTAL     ACCESS:   23151048  HIT:   20622921  MISS:    2528127
cpu0_DTLB LOAD      ACCESS:   17853058  HIT:   16122562  MISS:    1730496
cpu0_DTLB RFO       ACCESS:    5297990  HIT:    4500359  MISS:     797631
cpu0_DTLB PREFETCH  ACCESS:          0  HIT:          0  MISS:          0
cpu0_DTLB WRITEBACK ACCESS:          0  HIT:          0  MISS:          0
cpu0_DTLB TRANSLATION ACCESS:          0  HIT:          0  MISS:          0
cpu0_DTLB PREFETCH  REQUESTED:          0  ISSUED:          0  USEFUL:          0  USELESS:          0
cpu0_DTLB AVERAGE MISS LATENCY: 13.6889 cycles
cpu0_DTLB MSHR FULL EVENTS: 153084 MSHR MERGE EVENTS: 986728
cpu0_ITLB TOTAL     ACCESS:    8681795  HIT:    8681795  MISS:          0
cpu0_ITLB LOAD      ACCESS:    8681795  HIT:    8681795  MISS:          0
cpu0_ITLB RFO       ACCESS:          0  HIT:          0  MISS:          0
cpu0_ITLB PREFETCH  ACCESS:          0  HIT:          0  MISS:          0
cpu0_ITLB WRITEBACK ACCESS:          0  HIT:          0  MISS:          0
cpu0_ITLB TRANSLATION ACCESS:          0  HIT:          0  MISS:          0
cpu0_ITLB PREFETCH  REQUESTED:          0  ISSUED:          0  USEFUL:          0  USELESS:          0
cpu0_ITLB AVERAGE MISS LATENCY: -nan cycles
cpu0_ITLB MSHR FULL EVENTS: 0 MSHR MERGE EVENTS: 0
cpu0_L1I TOTAL     ACCESS:        222  HIT:        222  MISS:          0
cpu0_L1I LOAD      ACCESS:        222  HIT:        222  MISS:          0
cpu0_L1I RFO       ACCESS:          0  HIT:          0  MISS:          0
cpu0_L1I PREFETCH  ACCESS:          0  HIT:          0  MISS:          0
cpu0_L1I WRITEBACK ACCESS:          0  HIT:          0  MISS:          0
cpu0_L1I TRANSLATION ACCESS:          0  HIT:          0  MISS:          0
cpu0_L1I PREFETCH  REQUESTED:          0  ISSUED:          0  USEFUL:          0  USELESS:          0
cpu0_L1I AVERAGE MISS LATENCY: -nan cycles
cpu0_L1I MSHR FULL EVENTS: 0 MSHR MERGE EVENTS: 0
cpu0_STLB TOTAL     ACCESS:    2528127  HIT:    1140065  MISS:    1388062
cpu0_STLB LOAD      ACCESS:    1730496  HIT:     835621  MISS:     894875
cpu0_STLB RFO       ACCESS:     797631  HIT:     304444  MISS:     493187
cpu0_STLB PREFETCH  ACCESS:          0  HIT:          0  MISS:          0
cpu0_STLB WRITEBACK ACCESS:          0  HIT:          0  MISS:          0
cpu0_STLB TRANSLATION ACCESS:          0  HIT:          0  MISS:          0
cpu0_STLB PREFETCH  REQUESTED:          0  ISSUED:          0  USEFUL:          0  USELESS:          0
cpu0_STLB AVERAGE MISS LATENCY: 9.38364 cycles
cpu0_STLB MSHR FULL EVENTS: 0 MSHR MERGE EVENTS: 0
cpu0_L1D TOTAL     ACCESS:   27771137  HIT:   19607131  MISS:    8164006
cpu0_L1D LOAD      ACCESS:   19451588  HIT:   11314268  MISS:    8137320
cpu0_L1D RFO       ACCESS:    7084471  HIT:    7062666  MISS:      21805
cpu0_L1D PREFETCH  ACCESS:          0  HIT:          0  MISS:          0
cpu0_L1D WRITEBACK ACCESS:          0  HIT:          0  MISS:          0
cpu0_L1D TRANSLATION ACCESS:    1235078  HIT:    1230197  MISS:       4881
cpu0_L1D PREFETCH  REQUESTED:          0  ISSUED:          0  USEFUL:          0  USELESS:          0
cpu0_L1D AVERAGE MISS LATENCY: 32.0538 cycles
cpu0_L1D MSHR FULL EVENTS: 1162868 MSHR MERGE EVENTS: 931594
cpu0_L2C TOTAL     ACCESS:   11813034  HIT:    5346924  MISS:    6466083
cpu0_L2C LOAD      ACCESS:    8137317  HIT:    1692916  MISS:    6444401
cpu0_L2C RFO       ACCESS:      21805  HIT:        271  MISS:      21534
cpu0_L2C PREFETCH  ACCESS:          0  HIT:          0  MISS:          0
cpu0_L2C WRITEBACK ACCESS:    3649031  HIT:    3649004  MISS:         27
cpu0_L2C TRANSLATION ACCESS:       4881  HIT:       4733  MISS:        148
cpu0_L2C PREFETCH  REQUESTED:          0  ISSUED:          0  USEFUL:          0  USELESS:          0
cpu0_L2C AVERAGE MISS LATENCY: 26.8218 cycles
cpu0_L2C MSHR FULL EVENTS: 0 MSHR MERGE EVENTS: 0
LLC TOTAL     ACCESS:   12932077  HIT:    6129359  MISS:     336720
LLC LOAD      ACCESS:    6444290  HIT:    6118213  MISS:     326077
LLC RFO       ACCESS:      21534  HIT:      10905  MISS:      10629
LLC PREFETCH  ACCESS:          0  HIT:          0  MISS:          0
LLC WRITEBACK ACCESS:    6466105  HIT:        107  MISS:    6465998
LLC TRANSLATION ACCESS:        148  HIT:        134  MISS:         14
LLC PREFETCH  REQUESTED:          0  ISSUED:          0  USEFUL:          0  USELESS:          0
LLC AVERAGE MISS LATENCY: 112.799 cycles
LLC MSHR FULL EVENTS: 0 MSHR MERGE EVENTS: 0
blocks bypassed = 0
blocks filled to llc = 0

DRAM Statistics
 CHANNEL 0
 RQ ROW_BUFFER_HIT:     174131  ROW_BUFFER_MISS:     162589
 DBUS AVG_CONGESTED_CYCLE:    3.89944
 WQ ROW_BUFFER_HIT:      19126  ROW_BUFFER_MISS:      54120  FULL:          0


CPU 0 Branch Prediction Accuracy: 93.1676% MPKI: 9.70134 Average ROB Occupancy at Mispredict: 82.4075
Branch type MPKI
BRANCH_DIRECT_JUMP: 0
BRANCH_INDIRECT: 0
BRANCH_CONDITIONAL: 9.70134
BRANCH_DIRECT_CALL: 0
BRANCH_INDIRECT_CALL: 0
BRANCH_RETURN: 0

