
*** ChampSim Multicore Out-of-Order Simulator ***

Warmup Instructions: 40000000
Simulation Instructions: 100000000
Number of CPUs: 1
Off-chip DRAM Size: 4 GiB Channels: 1 Width: 64-bit Data Rate: 3200 MT/s

VirtualMemory physical capacity: 4293914624 num_ppages: 1048319
VirtualMemory page size: 4096 log2_page_size: 12

CPU 0 runs ../../../../ICS/traces//Radii_24500M.champsim.xz
CPU 0 Bimodal branch predictor
Basic BTB sets: 1024 ways: 8 indirect buffer size: 4096 RAS size: 64
Heartbeat CPU 0 instructions: 10000001 cycles: 2500050 heartbeat IPC: 3.99992 cumulative IPC: 3.99992 (Simulation time: 0 hr 0 min 35 sec) 
Heartbeat CPU 0 instructions: 20000004 cycles: 5582235 heartbeat IPC: 3.24445 cumulative IPC: 3.5828 (Simulation time: 0 hr 0 min 57 sec) 
Heartbeat CPU 0 instructions: 30000001 cycles: 8560054 heartbeat IPC: 3.35816 cumulative IPC: 3.50465 (Simulation time: 0 hr 1 min 14 sec) 
Heartbeat CPU 0 instructions: 40000001 cycles: 11489644 heartbeat IPC: 3.41345 cumulative IPC: 3.4814 (Simulation time: 0 hr 1 min 39 sec) 

Warmup complete CPU 0 instructions: 40000001 cycles: 11489644 (Simulation time: 0 hr 1 min 39 sec) 

Heartbeat CPU 0 instructions: 50000000 cycles: 44665262 heartbeat IPC: 0.301426 cumulative IPC: 0.301426 (Simulation time: 0 hr 5 min 23 sec) 
Heartbeat CPU 0 instructions: 60000004 cycles: 55104621 heartbeat IPC: 0.957914 cumulative IPC: 0.458558 (Simulation time: 0 hr 6 min 40 sec) 
Heartbeat CPU 0 instructions: 70000001 cycles: 65125695 heartbeat IPC: 0.997897 cumulative IPC: 0.559325 (Simulation time: 0 hr 7 min 55 sec) 
Heartbeat CPU 0 instructions: 80000004 cycles: 75974377 heartbeat IPC: 0.921771 cumulative IPC: 0.620302 (Simulation time: 0 hr 9 min 7 sec) 
Heartbeat CPU 0 instructions: 90000000 cycles: 89939301 heartbeat IPC: 0.71608 cumulative IPC: 0.637351 (Simulation time: 0 hr 10 min 14 sec) 
Heartbeat CPU 0 instructions: 100000004 cycles: 103750623 heartbeat IPC: 0.724044 cumulative IPC: 0.650329 (Simulation time: 0 hr 11 min 25 sec) 
Heartbeat CPU 0 instructions: 110000001 cycles: 117376996 heartbeat IPC: 0.733871 cumulative IPC: 0.66108 (Simulation time: 0 hr 12 min 33 sec) 
Heartbeat CPU 0 instructions: 120000004 cycles: 131100096 heartbeat IPC: 0.728699 cumulative IPC: 0.668838 (Simulation time: 0 hr 13 min 40 sec) 
Heartbeat CPU 0 instructions: 130000003 cycles: 144347753 heartbeat IPC: 0.75485 cumulative IPC: 0.677414 (Simulation time: 0 hr 14 min 37 sec) 
Heartbeat CPU 0 instructions: 140000002 cycles: 158808513 heartbeat IPC: 0.691527 cumulative IPC: 0.6788 (Simulation time: 0 hr 15 min 33 sec) 
Finished CPU 0 instructions: 100000001 cycles: 147318869 cumulative IPC: 0.6788 (Simulation time: 0 hr 15 min 33 sec) 

ChampSim completed all CPUs

Region of Interest Statistics

CPU 0 cumulative IPC: 0.6788 instructions: 100000001 cycles: 147318869
cpu0_DTLB TOTAL     ACCESS:   19316918  HIT:   18195825  MISS:    1121093
cpu0_DTLB LOAD      ACCESS:   17115154  HIT:   16003823  MISS:    1111331
cpu0_DTLB RFO       ACCESS:    2201764  HIT:    2192002  MISS:       9762
cpu0_DTLB PREFETCH  ACCESS:          0  HIT:          0  MISS:          0
cpu0_DTLB WRITEBACK ACCESS:          0  HIT:          0  MISS:          0
cpu0_DTLB TRANSLATION ACCESS:          0  HIT:          0  MISS:          0
cpu0_DTLB PREFETCH  REQUESTED:          0  ISSUED:          0  USEFUL:          0  USELESS:          0
cpu0_DTLB AVERAGE MISS LATENCY: 19.0185 cycles
cpu0_DTLB MSHR FULL EVENTS: 14961 MSHR MERGE EVENTS: 385239
cpu0_ITLB TOTAL     ACCESS:    7590850  HIT:    7590849  MISS:          1
cpu0_ITLB LOAD      ACCESS:    7590850  HIT:    7590849  MISS:          1
cpu0_ITLB RFO       ACCESS:          0  HIT:          0  MISS:          0
cpu0_ITLB PREFETCH  ACCESS:          0  HIT:          0  MISS:          0
cpu0_ITLB WRITEBACK ACCESS:          0  HIT:          0  MISS:          0
cpu0_ITLB TRANSLATION ACCESS:          0  HIT:          0  MISS:          0
cpu0_ITLB PREFETCH  REQUESTED:          0  ISSUED:          0  USEFUL:          0  USELESS:          0
cpu0_ITLB AVERAGE MISS LATENCY: 1848 cycles
cpu0_ITLB MSHR FULL EVENTS: 0 MSHR MERGE EVENTS: 0
cpu0_L1I TOTAL     ACCESS:        154  HIT:        119  MISS:         35
cpu0_L1I LOAD      ACCESS:        154  HIT:        119  MISS:         35
cpu0_L1I RFO       ACCESS:          0  HIT:          0  MISS:          0
cpu0_L1I PREFETCH  ACCESS:          0  HIT:          0  MISS:          0
cpu0_L1I WRITEBACK ACCESS:          0  HIT:          0  MISS:          0
cpu0_L1I TRANSLATION ACCESS:          0  HIT:          0  MISS:          0
cpu0_L1I PREFETCH  REQUESTED:          0  ISSUED:          0  USEFUL:          0  USELESS:          0
cpu0_L1I AVERAGE MISS LATENCY: 212.743 cycles
cpu0_L1I MSHR FULL EVENTS: 0 MSHR MERGE EVENTS: 0
cpu0_STLB TOTAL     ACCESS:    1121094  HIT:    1087796  MISS:      33298
cpu0_STLB LOAD      ACCESS:    1111332  HIT:    1080704  MISS:      30628
cpu0_STLB RFO       ACCESS:       9762  HIT:       7092  MISS:       2670
cpu0_STLB PREFETCH  ACCESS:          0  HIT:          0  MISS:          0
cpu0_STLB WRITEBACK ACCESS:          0  HIT:          0  MISS:          0
cpu0_STLB TRANSLATION ACCESS:          0  HIT:          0  MISS:          0
cpu0_STLB PREFETCH  REQUESTED:          0  ISSUED:          0  USEFUL:          0  USELESS:          0
cpu0_STLB AVERAGE MISS LATENCY: 333.323 cycles
cpu0_STLB MSHR FULL EVENTS: 0 MSHR MERGE EVENTS: 0
cpu0_L1D TOTAL     ACCESS:   17236918  HIT:   12106083  MISS:    5130835
cpu0_L1D LOAD      ACCESS:   15519222  HIT:   10543846  MISS:    4975376
cpu0_L1D RFO       ACCESS:    1684596  HIT:    1536898  MISS:     147698
cpu0_L1D PREFETCH  ACCESS:          0  HIT:          0  MISS:          0
cpu0_L1D WRITEBACK ACCESS:          0  HIT:          0  MISS:          0
cpu0_L1D TRANSLATION ACCESS:      33100  HIT:      25339  MISS:       7761
cpu0_L1D PREFETCH  REQUESTED:          0  ISSUED:          0  USEFUL:          0  USELESS:          0
cpu0_L1D AVERAGE MISS LATENCY: 114.152 cycles
cpu0_L1D MSHR FULL EVENTS: 23003688 MSHR MERGE EVENTS: 3040620
cpu0_L2C TOTAL     ACCESS:    5279639  HIT:    3622351  MISS:    1657280
cpu0_L2C LOAD      ACCESS:    4975411  HIT:    3465877  MISS:    1509534
cpu0_L2C RFO       ACCESS:     147698  HIT:          5  MISS:     147693
cpu0_L2C PREFETCH  ACCESS:          0  HIT:          0  MISS:          0
cpu0_L2C WRITEBACK ACCESS:     148769  HIT:     148761  MISS:          8
cpu0_L2C TRANSLATION ACCESS:       7761  HIT:       7708  MISS:         53
cpu0_L2C PREFETCH  REQUESTED:          0  ISSUED:          0  USEFUL:          0  USELESS:          0
cpu0_L2C AVERAGE MISS LATENCY: 319.295 cycles
cpu0_L2C MSHR FULL EVENTS: 0 MSHR MERGE EVENTS: 0
LLC TOTAL     ACCESS:    3314563  HIT:     111084  MISS:    1546196
LLC LOAD      ACCESS:    1509528  HIT:     109115  MISS:    1400413
LLC RFO       ACCESS:     147693  HIT:       1929  MISS:     145764
LLC PREFETCH  ACCESS:          0  HIT:          0  MISS:          0
LLC WRITEBACK ACCESS:    1657289  HIT:          6  MISS:    1657283
LLC TRANSLATION ACCESS:         53  HIT:         34  MISS:         19
LLC PREFETCH  REQUESTED:          0  ISSUED:          0  USEFUL:          0  USELESS:          0
LLC AVERAGE MISS LATENCY: 320.725 cycles
LLC MSHR FULL EVENTS: 0 MSHR MERGE EVENTS: 0
blocks bypassed = 0
blocks filled to llc = 0

DRAM Statistics
 CHANNEL 0
 RQ ROW_BUFFER_HIT:     438791  ROW_BUFFER_MISS:    1107394
 DBUS AVG_CONGESTED_CYCLE:    3.88377
 WQ ROW_BUFFER_HIT:      14304  ROW_BUFFER_MISS:     184093  FULL:          0


CPU 0 Branch Prediction Accuracy: 97.3744% MPKI: 7.77203 Average ROB Occupancy at Mispredict: 143.589
Branch type MPKI
BRANCH_DIRECT_JUMP: 7e-05
BRANCH_INDIRECT: 0
BRANCH_CONDITIONAL: 7.77181
BRANCH_DIRECT_CALL: 8e-05
BRANCH_INDIRECT_CALL: 0
BRANCH_RETURN: 7e-05

