
*** ChampSim Multicore Out-of-Order Simulator ***

Warmup Instructions: 40000000
Simulation Instructions: 100000000
Number of CPUs: 1
Off-chip DRAM Size: 4 GiB Channels: 1 Width: 64-bit Data Rate: 3200 MT/s

VirtualMemory physical capacity: 4293914624 num_ppages: 1048319
VirtualMemory page size: 4096 log2_page_size: 12

CPU 0 runs ../../../../ICS/traces//bfs-10.trace.gz
CPU 0 Bimodal branch predictor
Basic BTB sets: 1024 ways: 8 indirect buffer size: 4096 RAS size: 64
Heartbeat CPU 0 instructions: 10000003 cycles: 2500167 heartbeat IPC: 3.99973 cumulative IPC: 3.99973 (Simulation time: 0 hr 0 min 30 sec) 
Heartbeat CPU 0 instructions: 20000002 cycles: 5044321 heartbeat IPC: 3.93058 cumulative IPC: 3.96486 (Simulation time: 0 hr 1 min 6 sec) 
Heartbeat CPU 0 instructions: 30000004 cycles: 7575038 heartbeat IPC: 3.95145 cumulative IPC: 3.96038 (Simulation time: 0 hr 1 min 43 sec) 
Heartbeat CPU 0 instructions: 40000001 cycles: 10106014 heartbeat IPC: 3.95104 cumulative IPC: 3.95804 (Simulation time: 0 hr 2 min 34 sec) 

Warmup complete CPU 0 instructions: 40000001 cycles: 10106014 (Simulation time: 0 hr 2 min 34 sec) 

Heartbeat CPU 0 instructions: 50000000 cycles: 43642191 heartbeat IPC: 0.298185 cumulative IPC: 0.298185 (Simulation time: 0 hr 4 min 7 sec) 
Heartbeat CPU 0 instructions: 60000003 cycles: 86173248 heartbeat IPC: 0.235122 cumulative IPC: 0.262925 (Simulation time: 0 hr 6 min 7 sec) 
Heartbeat CPU 0 instructions: 70000004 cycles: 136582923 heartbeat IPC: 0.198375 cumulative IPC: 0.237197 (Simulation time: 0 hr 8 min 19 sec) 
Heartbeat CPU 0 instructions: 80000002 cycles: 173991834 heartbeat IPC: 0.267316 cumulative IPC: 0.244072 (Simulation time: 0 hr 9 min 59 sec) 
Heartbeat CPU 0 instructions: 90000004 cycles: 177751301 heartbeat IPC: 2.65995 cumulative IPC: 0.298249 (Simulation time: 0 hr 10 min 39 sec) 
Heartbeat CPU 0 instructions: 100000000 cycles: 184281953 heartbeat IPC: 1.53124 cumulative IPC: 0.344479 (Simulation time: 0 hr 11 min 34 sec) 
Heartbeat CPU 0 instructions: 110000002 cycles: 202171825 heartbeat IPC: 0.558976 cumulative IPC: 0.364458 (Simulation time: 0 hr 12 min 30 sec) 
Heartbeat CPU 0 instructions: 120000000 cycles: 240669519 heartbeat IPC: 0.259756 cumulative IPC: 0.346976 (Simulation time: 0 hr 14 min 9 sec) 
Heartbeat CPU 0 instructions: 130000002 cycles: 283678556 heartbeat IPC: 0.232509 cumulative IPC: 0.32898 (Simulation time: 0 hr 15 min 47 sec) 
Heartbeat CPU 0 instructions: 140000002 cycles: 332082779 heartbeat IPC: 0.206594 cumulative IPC: 0.310581 (Simulation time: 0 hr 16 min 48 sec) 
Finished CPU 0 instructions: 100000001 cycles: 321976765 cumulative IPC: 0.310581 (Simulation time: 0 hr 16 min 48 sec) 

ChampSim completed all CPUs

Region of Interest Statistics

CPU 0 cumulative IPC: 0.310581 instructions: 100000001 cycles: 321976765
cpu0_DTLB TOTAL     ACCESS:   21274371  HIT:   21175104  MISS:      99267
cpu0_DTLB LOAD      ACCESS:   18368335  HIT:   18270888  MISS:      97447
cpu0_DTLB RFO       ACCESS:    2906036  HIT:    2904216  MISS:       1820
cpu0_DTLB PREFETCH  ACCESS:          0  HIT:          0  MISS:          0
cpu0_DTLB WRITEBACK ACCESS:          0  HIT:          0  MISS:          0
cpu0_DTLB TRANSLATION ACCESS:          0  HIT:          0  MISS:          0
cpu0_DTLB PREFETCH  REQUESTED:          0  ISSUED:          0  USEFUL:          0  USELESS:          0
cpu0_DTLB AVERAGE MISS LATENCY: 31.6814 cycles
cpu0_DTLB MSHR FULL EVENTS: 0 MSHR MERGE EVENTS: 26987
cpu0_ITLB TOTAL     ACCESS:    9815324  HIT:    9815324  MISS:          0
cpu0_ITLB LOAD      ACCESS:    9815324  HIT:    9815324  MISS:          0
cpu0_ITLB RFO       ACCESS:          0  HIT:          0  MISS:          0
cpu0_ITLB PREFETCH  ACCESS:          0  HIT:          0  MISS:          0
cpu0_ITLB WRITEBACK ACCESS:          0  HIT:          0  MISS:          0
cpu0_ITLB TRANSLATION ACCESS:          0  HIT:          0  MISS:          0
cpu0_ITLB PREFETCH  REQUESTED:          0  ISSUED:          0  USEFUL:          0  USELESS:          0
cpu0_ITLB AVERAGE MISS LATENCY: -nan cycles
cpu0_ITLB MSHR FULL EVENTS: 0 MSHR MERGE EVENTS: 0
cpu0_L1I TOTAL     ACCESS:       1074  HIT:       1059  MISS:         15
cpu0_L1I LOAD      ACCESS:       1074  HIT:       1059  MISS:         15
cpu0_L1I RFO       ACCESS:          0  HIT:          0  MISS:          0
cpu0_L1I PREFETCH  ACCESS:          0  HIT:          0  MISS:          0
cpu0_L1I WRITEBACK ACCESS:          0  HIT:          0  MISS:          0
cpu0_L1I TRANSLATION ACCESS:          0  HIT:          0  MISS:          0
cpu0_L1I PREFETCH  REQUESTED:          0  ISSUED:          0  USEFUL:          0  USELESS:          0
cpu0_L1I AVERAGE MISS LATENCY: 214.067 cycles
cpu0_L1I MSHR FULL EVENTS: 0 MSHR MERGE EVENTS: 0
cpu0_STLB TOTAL     ACCESS:      99267  HIT:      12149  MISS:      87118
cpu0_STLB LOAD      ACCESS:      97447  HIT:      11358  MISS:      86089
cpu0_STLB RFO       ACCESS:       1820  HIT:        791  MISS:       1029
cpu0_STLB PREFETCH  ACCESS:          0  HIT:          0  MISS:          0
cpu0_STLB WRITEBACK ACCESS:          0  HIT:          0  MISS:          0
cpu0_STLB TRANSLATION ACCESS:          0  HIT:          0  MISS:          0
cpu0_STLB PREFETCH  REQUESTED:          0  ISSUED:          0  USEFUL:          0  USELESS:          0
cpu0_STLB AVERAGE MISS LATENCY: 26.8536 cycles
cpu0_STLB MSHR FULL EVENTS: 0 MSHR MERGE EVENTS: 0
cpu0_L1D TOTAL     ACCESS:   18845639  HIT:   15715915  MISS:    3129724
cpu0_L1D LOAD      ACCESS:   15727813  HIT:   12680361  MISS:    3047452
cpu0_L1D RFO       ACCESS:    3031858  HIT:    2952692  MISS:      79166
cpu0_L1D PREFETCH  ACCESS:          0  HIT:          0  MISS:          0
cpu0_L1D WRITEBACK ACCESS:          0  HIT:          0  MISS:          0
cpu0_L1D TRANSLATION ACCESS:      85968  HIT:      82862  MISS:       3106
cpu0_L1D PREFETCH  REQUESTED:          0  ISSUED:          0  USEFUL:          0  USELESS:          0
cpu0_L1D AVERAGE MISS LATENCY: 79.5911 cycles
cpu0_L1D MSHR FULL EVENTS: 21019 MSHR MERGE EVENTS: 667259
cpu0_L2C TOTAL     ACCESS:    3403073  HIT:    1718212  MISS:    1684855
cpu0_L2C LOAD      ACCESS:    3047467  HIT:    1435455  MISS:    1612012
cpu0_L2C RFO       ACCESS:      79166  HIT:       6403  MISS:      72763
cpu0_L2C PREFETCH  ACCESS:          0  HIT:          0  MISS:          0
cpu0_L2C WRITEBACK ACCESS:     273334  HIT:     273328  MISS:          6
cpu0_L2C TRANSLATION ACCESS:       3106  HIT:       3026  MISS:         80
cpu0_L2C PREFETCH  REQUESTED:          0  ISSUED:          0  USEFUL:          0  USELESS:          0
cpu0_L2C AVERAGE MISS LATENCY: 128.248 cycles
cpu0_L2C MSHR FULL EVENTS: 0 MSHR MERGE EVENTS: 0
LLC TOTAL     ACCESS:    3369715  HIT:     441825  MISS:    1243030
LLC LOAD      ACCESS:    1612011  HIT:     372016  MISS:    1239995
LLC RFO       ACCESS:      72763  HIT:      69761  MISS:       3002
LLC PREFETCH  ACCESS:          0  HIT:          0  MISS:          0
LLC WRITEBACK ACCESS:    1684861  HIT:          1  MISS:    1684860
LLC TRANSLATION ACCESS:         80  HIT:         47  MISS:         33
LLC PREFETCH  REQUESTED:          0  ISSUED:          0  USEFUL:          0  USELESS:          0
LLC AVERAGE MISS LATENCY: 146.368 cycles
LLC MSHR FULL EVENTS: 0 MSHR MERGE EVENTS: 0
blocks bypassed = 0
blocks filled to llc = 0

DRAM Statistics
 CHANNEL 0
 RQ ROW_BUFFER_HIT:     231258  ROW_BUFFER_MISS:    1011766
 DBUS AVG_CONGESTED_CYCLE:    3.29757
 WQ ROW_BUFFER_HIT:     110292  ROW_BUFFER_MISS:      72214  FULL:          0


CPU 0 Branch Prediction Accuracy: 82.7506% MPKI: 36.2664 Average ROB Occupancy at Mispredict: 8.73479
Branch type MPKI
BRANCH_DIRECT_JUMP: 5e-05
BRANCH_INDIRECT: 1e-05
BRANCH_CONDITIONAL: 36.2661
BRANCH_DIRECT_CALL: 0.00012
BRANCH_INDIRECT_CALL: 2e-05
BRANCH_RETURN: 0.00012

