
*** ChampSim Multicore Out-of-Order Simulator ***

Warmup Instructions: 40000000
Simulation Instructions: 100000000
Number of CPUs: 1
Off-chip DRAM Size: 4 GiB Channels: 1 Width: 64-bit Data Rate: 3200 MT/s

VirtualMemory physical capacity: 4293914624 num_ppages: 1048319
VirtualMemory page size: 4096 log2_page_size: 12

CPU 0 runs ../../../../ICS/traces//bc-3.trace.gz
CPU 0 Bimodal branch predictor
Basic BTB sets: 1024 ways: 8 indirect buffer size: 4096 RAS size: 64
Heartbeat CPU 0 instructions: 10000000 cycles: 3274526 heartbeat IPC: 3.05388 cumulative IPC: 3.05388 (Simulation time: 0 hr 0 min 54 sec) 
Heartbeat CPU 0 instructions: 20000000 cycles: 5777967 heartbeat IPC: 3.9945 cumulative IPC: 3.46143 (Simulation time: 0 hr 1 min 34 sec) 
Heartbeat CPU 0 instructions: 30000000 cycles: 8280031 heartbeat IPC: 3.9967 cumulative IPC: 3.62317 (Simulation time: 0 hr 2 min 21 sec) 
Heartbeat CPU 0 instructions: 40000002 cycles: 10781406 heartbeat IPC: 3.9978 cumulative IPC: 3.71009 (Simulation time: 0 hr 3 min 10 sec) 

Warmup complete CPU 0 instructions: 40000002 cycles: 10781406 (Simulation time: 0 hr 3 min 10 sec) 

Heartbeat CPU 0 instructions: 50000000 cycles: 36059824 heartbeat IPC: 0.395594 cumulative IPC: 0.395594 (Simulation time: 0 hr 4 min 38 sec) 
Heartbeat CPU 0 instructions: 60000001 cycles: 61047472 heartbeat IPC: 0.400198 cumulative IPC: 0.397883 (Simulation time: 0 hr 6 min 6 sec) 
Heartbeat CPU 0 instructions: 70000000 cycles: 85799118 heartbeat IPC: 0.404013 cumulative IPC: 0.399906 (Simulation time: 0 hr 7 min 32 sec) 
Heartbeat CPU 0 instructions: 80000000 cycles: 110505251 heartbeat IPC: 0.404758 cumulative IPC: 0.401108 (Simulation time: 0 hr 9 min 1 sec) 
Heartbeat CPU 0 instructions: 90000000 cycles: 135087896 heartbeat IPC: 0.406791 cumulative IPC: 0.402232 (Simulation time: 0 hr 10 min 29 sec) 
Heartbeat CPU 0 instructions: 100000004 cycles: 159557072 heartbeat IPC: 0.408678 cumulative IPC: 0.403292 (Simulation time: 0 hr 11 min 54 sec) 
Heartbeat CPU 0 instructions: 110000000 cycles: 184049008 heartbeat IPC: 0.408297 cumulative IPC: 0.403999 (Simulation time: 0 hr 13 min 6 sec) 
Heartbeat CPU 0 instructions: 120000000 cycles: 208392319 heartbeat IPC: 0.41079 cumulative IPC: 0.404836 (Simulation time: 0 hr 13 min 57 sec) 
Heartbeat CPU 0 instructions: 130000002 cycles: 232802437 heartbeat IPC: 0.409666 cumulative IPC: 0.405367 (Simulation time: 0 hr 14 min 44 sec) 
Heartbeat CPU 0 instructions: 140000001 cycles: 257173538 heartbeat IPC: 0.410322 cumulative IPC: 0.405857 (Simulation time: 0 hr 15 min 53 sec) 
Finished CPU 0 instructions: 100000004 cycles: 246392133 cumulative IPC: 0.405857 (Simulation time: 0 hr 15 min 53 sec) 

ChampSim completed all CPUs

Region of Interest Statistics

CPU 0 cumulative IPC: 0.405857 instructions: 100000004 cycles: 246392133
cpu0_DTLB TOTAL     ACCESS:   20563460  HIT:   16714429  MISS:    3849031
cpu0_DTLB LOAD      ACCESS:   17165354  HIT:   14372778  MISS:    2792576
cpu0_DTLB RFO       ACCESS:    3398106  HIT:    2341651  MISS:    1056455
cpu0_DTLB PREFETCH  ACCESS:          0  HIT:          0  MISS:          0
cpu0_DTLB WRITEBACK ACCESS:          0  HIT:          0  MISS:          0
cpu0_DTLB TRANSLATION ACCESS:          0  HIT:          0  MISS:          0
cpu0_DTLB PREFETCH  REQUESTED:          0  ISSUED:          0  USEFUL:          0  USELESS:          0
cpu0_DTLB AVERAGE MISS LATENCY: 11.9882 cycles
cpu0_DTLB MSHR FULL EVENTS: 43241 MSHR MERGE EVENTS: 660270
cpu0_ITLB TOTAL     ACCESS:   13125164  HIT:   13125164  MISS:          0
cpu0_ITLB LOAD      ACCESS:   13125164  HIT:   13125164  MISS:          0
cpu0_ITLB RFO       ACCESS:          0  HIT:          0  MISS:          0
cpu0_ITLB PREFETCH  ACCESS:          0  HIT:          0  MISS:          0
cpu0_ITLB WRITEBACK ACCESS:          0  HIT:          0  MISS:          0
cpu0_ITLB TRANSLATION ACCESS:          0  HIT:          0  MISS:          0
cpu0_ITLB PREFETCH  REQUESTED:          0  ISSUED:          0  USEFUL:          0  USELESS:          0
cpu0_ITLB AVERAGE MISS LATENCY: -nan cycles
cpu0_ITLB MSHR FULL EVENTS: 0 MSHR MERGE EVENTS: 0
cpu0_L1I TOTAL     ACCESS:        204  HIT:        204  MISS:          0
cpu0_L1I LOAD      ACCESS:        204  HIT:        204  MISS:          0
cpu0_L1I RFO       ACCESS:          0  HIT:          0  MISS:          0
cpu0_L1I PREFETCH  ACCESS:          0  HIT:          0  MISS:          0
cpu0_L1I WRITEBACK ACCESS:          0  HIT:          0  MISS:          0
cpu0_L1I TRANSLATION ACCESS:          0  HIT:          0  MISS:          0
cpu0_L1I PREFETCH  REQUESTED:          0  ISSUED:          0  USEFUL:          0  USELESS:          0
cpu0_L1I AVERAGE MISS LATENCY: -nan cycles
cpu0_L1I MSHR FULL EVENTS: 0 MSHR MERGE EVENTS: 0
cpu0_STLB TOTAL     ACCESS:    3849031  HIT:    2685299  MISS:    1163732
cpu0_STLB LOAD      ACCESS:    2792576  HIT:    2280827  MISS:     511749
cpu0_STLB RFO       ACCESS:    1056455  HIT:     404472  MISS:     651983
cpu0_STLB PREFETCH  ACCESS:          0  HIT:          0  MISS:          0
cpu0_STLB WRITEBACK ACCESS:          0  HIT:          0  MISS:          0
cpu0_STLB TRANSLATION ACCESS:          0  HIT:          0  MISS:          0
cpu0_STLB PREFETCH  REQUESTED:          0  ISSUED:          0  USEFUL:          0  USELESS:          0
cpu0_STLB AVERAGE MISS LATENCY: 10.4294 cycles
cpu0_STLB MSHR FULL EVENTS: 0 MSHR MERGE EVENTS: 0
cpu0_L1D TOTAL     ACCESS:   23454312  HIT:   14638470  MISS:    8815842
cpu0_L1D LOAD      ACCESS:   18789681  HIT:   10003863  MISS:    8785818
cpu0_L1D RFO       ACCESS:    3538225  HIT:    3514395  MISS:      23830
cpu0_L1D PREFETCH  ACCESS:          0  HIT:          0  MISS:          0
cpu0_L1D WRITEBACK ACCESS:          0  HIT:          0  MISS:          0
cpu0_L1D TRANSLATION ACCESS:    1126406  HIT:    1120212  MISS:       6194
cpu0_L1D PREFETCH  REQUESTED:          0  ISSUED:          0  USEFUL:          0  USELESS:          0
cpu0_L1D AVERAGE MISS LATENCY: 32.0421 cycles
cpu0_L1D MSHR FULL EVENTS: 221331 MSHR MERGE EVENTS: 550717
cpu0_L2C TOTAL     ACCESS:   10608807  HIT:    4507372  MISS:    6101366
cpu0_L2C LOAD      ACCESS:    8785818  HIT:    2708226  MISS:    6077592
cpu0_L2C RFO       ACCESS:      23830  HIT:        321  MISS:      23509
cpu0_L2C PREFETCH  ACCESS:          0  HIT:          0  MISS:          0
cpu0_L2C WRITEBACK ACCESS:    1792965  HIT:    1792896  MISS:         69
cpu0_L2C TRANSLATION ACCESS:       6194  HIT:       5929  MISS:        265
cpu0_L2C PREFETCH  REQUESTED:          0  ISSUED:          0  USEFUL:          0  USELESS:          0
cpu0_L2C AVERAGE MISS LATENCY: 30.9828 cycles
cpu0_L2C MSHR FULL EVENTS: 0 MSHR MERGE EVENTS: 0
LLC TOTAL     ACCESS:   12202778  HIT:    5569167  MISS:     532199
LLC LOAD      ACCESS:    6077575  HIT:    5557720  MISS:     519855
LLC RFO       ACCESS:      23509  HIT:      11172  MISS:      12337
LLC PREFETCH  ACCESS:          0  HIT:          0  MISS:          0
LLC WRITEBACK ACCESS:    6101429  HIT:         17  MISS:    6101412
LLC TRANSLATION ACCESS:        265  HIT:        258  MISS:          7
LLC PREFETCH  REQUESTED:          0  ISSUED:          0  USEFUL:          0  USELESS:          0
LLC AVERAGE MISS LATENCY: 115.445 cycles
LLC MSHR FULL EVENTS: 0 MSHR MERGE EVENTS: 0
blocks bypassed = 0
blocks filled to llc = 0

DRAM Statistics
 CHANNEL 0
 RQ ROW_BUFFER_HIT:     259656  ROW_BUFFER_MISS:     272541
 DBUS AVG_CONGESTED_CYCLE:    3.90536
 WQ ROW_BUFFER_HIT:      16331  ROW_BUFFER_MISS:      72311  FULL:          0


CPU 0 Branch Prediction Accuracy: 86.6685% MPKI: 28.5131 Average ROB Occupancy at Mispredict: 24.9196
Branch type MPKI
BRANCH_DIRECT_JUMP: 0
BRANCH_INDIRECT: 0
BRANCH_CONDITIONAL: 28.5131
BRANCH_DIRECT_CALL: 0
BRANCH_INDIRECT_CALL: 0
BRANCH_RETURN: 0

