
*** ChampSim Multicore Out-of-Order Simulator ***

Warmup Instructions: 40000000
Simulation Instructions: 100000000
Number of CPUs: 1
Off-chip DRAM Size: 4 GiB Channels: 1 Width: 64-bit Data Rate: 3200 MT/s

VirtualMemory physical capacity: 4293914624 num_ppages: 1048319
VirtualMemory page size: 4096 log2_page_size: 12

CPU 0 runs ../../../../ICS/traces//cc-5.trace.gz
CPU 0 Bimodal branch predictor
Basic BTB sets: 1024 ways: 8 indirect buffer size: 4096 RAS size: 64
Heartbeat CPU 0 instructions: 10000003 cycles: 2516505 heartbeat IPC: 3.97377 cumulative IPC: 3.97377 (Simulation time: 0 hr 0 min 33 sec) 
Heartbeat CPU 0 instructions: 20000002 cycles: 5098389 heartbeat IPC: 3.87314 cumulative IPC: 3.92281 (Simulation time: 0 hr 1 min 12 sec) 
Heartbeat CPU 0 instructions: 30000000 cycles: 7720296 heartbeat IPC: 3.81402 cumulative IPC: 3.88586 (Simulation time: 0 hr 1 min 52 sec) 
Heartbeat CPU 0 instructions: 40000002 cycles: 10369276 heartbeat IPC: 3.77504 cumulative IPC: 3.85755 (Simulation time: 0 hr 2 min 32 sec) 

Warmup complete CPU 0 instructions: 40000002 cycles: 10369276 (Simulation time: 0 hr 2 min 32 sec) 

Heartbeat CPU 0 instructions: 50000002 cycles: 28295878 heartbeat IPC: 0.55783 cumulative IPC: 0.55783 (Simulation time: 0 hr 3 min 31 sec) 
Heartbeat CPU 0 instructions: 60000001 cycles: 46794097 heartbeat IPC: 0.540593 cumulative IPC: 0.549076 (Simulation time: 0 hr 4 min 30 sec) 
Heartbeat CPU 0 instructions: 70000004 cycles: 64253713 heartbeat IPC: 0.57275 cumulative IPC: 0.556747 (Simulation time: 0 hr 5 min 27 sec) 
Heartbeat CPU 0 instructions: 80000000 cycles: 81813180 heartbeat IPC: 0.569493 cumulative IPC: 0.55988 (Simulation time: 0 hr 6 min 21 sec) 
Heartbeat CPU 0 instructions: 90000004 cycles: 99577891 heartbeat IPC: 0.562914 cumulative IPC: 0.560484 (Simulation time: 0 hr 7 min 24 sec) 
Heartbeat CPU 0 instructions: 100000002 cycles: 116683575 heartbeat IPC: 0.584601 cumulative IPC: 0.564364 (Simulation time: 0 hr 8 min 22 sec) 
Heartbeat CPU 0 instructions: 110000000 cycles: 133849857 heartbeat IPC: 0.582537 cumulative IPC: 0.566891 (Simulation time: 0 hr 9 min 23 sec) 
Heartbeat CPU 0 instructions: 120000000 cycles: 150928824 heartbeat IPC: 0.585515 cumulative IPC: 0.569154 (Simulation time: 0 hr 10 min 25 sec) 
Heartbeat CPU 0 instructions: 130000002 cycles: 166937233 heartbeat IPC: 0.624672 cumulative IPC: 0.57483 (Simulation time: 0 hr 11 min 22 sec) 
Heartbeat CPU 0 instructions: 140000000 cycles: 183827580 heartbeat IPC: 0.592054 cumulative IPC: 0.576507 (Simulation time: 0 hr 12 min 18 sec) 
Finished CPU 0 instructions: 100000003 cycles: 173458305 cumulative IPC: 0.576507 (Simulation time: 0 hr 12 min 18 sec) 

ChampSim completed all CPUs

Region of Interest Statistics

CPU 0 cumulative IPC: 0.576507 instructions: 100000003 cycles: 173458305
cpu0_DTLB TOTAL     ACCESS:   24450454  HIT:   19762968  MISS:    4687486
cpu0_DTLB LOAD      ACCESS:   24249098  HIT:   19561612  MISS:    4687486
cpu0_DTLB RFO       ACCESS:     201356  HIT:     201356  MISS:          0
cpu0_DTLB PREFETCH  ACCESS:          0  HIT:          0  MISS:          0
cpu0_DTLB WRITEBACK ACCESS:          0  HIT:          0  MISS:          0
cpu0_DTLB TRANSLATION ACCESS:          0  HIT:          0  MISS:          0
cpu0_DTLB PREFETCH  REQUESTED:          0  ISSUED:          0  USEFUL:          0  USELESS:          0
cpu0_DTLB AVERAGE MISS LATENCY: 9.86328 cycles
cpu0_DTLB MSHR FULL EVENTS: 512480 MSHR MERGE EVENTS: 273611
cpu0_ITLB TOTAL     ACCESS:    9705771  HIT:    9705771  MISS:          0
cpu0_ITLB LOAD      ACCESS:    9705771  HIT:    9705771  MISS:          0
cpu0_ITLB RFO       ACCESS:          0  HIT:          0  MISS:          0
cpu0_ITLB PREFETCH  ACCESS:          0  HIT:          0  MISS:          0
cpu0_ITLB WRITEBACK ACCESS:          0  HIT:          0  MISS:          0
cpu0_ITLB TRANSLATION ACCESS:          0  HIT:          0  MISS:          0
cpu0_ITLB PREFETCH  REQUESTED:          0  ISSUED:          0  USEFUL:          0  USELESS:          0
cpu0_ITLB AVERAGE MISS LATENCY: -nan cycles
cpu0_ITLB MSHR FULL EVENTS: 0 MSHR MERGE EVENTS: 0
cpu0_STLB TOTAL     ACCESS:    4687486  HIT:    4680397  MISS:       7089
cpu0_STLB LOAD      ACCESS:    4687486  HIT:    4680397  MISS:       7089
cpu0_STLB RFO       ACCESS:          0  HIT:          0  MISS:          0
cpu0_STLB PREFETCH  ACCESS:          0  HIT:          0  MISS:          0
cpu0_STLB WRITEBACK ACCESS:          0  HIT:          0  MISS:          0
cpu0_STLB TRANSLATION ACCESS:          0  HIT:          0  MISS:          0
cpu0_STLB PREFETCH  REQUESTED:          0  ISSUED:          0  USEFUL:          0  USELESS:          0
cpu0_STLB AVERAGE MISS LATENCY: 218.368 cycles
cpu0_STLB MSHR FULL EVENTS: 0 MSHR MERGE EVENTS: 0
cpu0_L1D TOTAL     ACCESS:   19672329  HIT:   12410568  MISS:    7261761
cpu0_L1D LOAD      ACCESS:   19463349  HIT:   12208200  MISS:    7255149
cpu0_L1D RFO       ACCESS:     201891  HIT:     201891  MISS:          0
cpu0_L1D PREFETCH  ACCESS:          0  HIT:          0  MISS:          0
cpu0_L1D WRITEBACK ACCESS:          0  HIT:          0  MISS:          0
cpu0_L1D TRANSLATION ACCESS:       7089  HIT:        477  MISS:       6612
cpu0_L1D PREFETCH  REQUESTED:          0  ISSUED:          0  USEFUL:          0  USELESS:          0
cpu0_L1D AVERAGE MISS LATENCY: 26.9779 cycles
cpu0_L1D MSHR FULL EVENTS: 3 MSHR MERGE EVENTS: 1224632
cpu0_L2C TOTAL     ACCESS:    7424701  HIT:    3701465  MISS:    3723221
cpu0_L2C LOAD      ACCESS:    7255149  HIT:    3531946  MISS:    3723203
cpu0_L2C RFO       ACCESS:          0  HIT:          0  MISS:          0
cpu0_L2C PREFETCH  ACCESS:          0  HIT:          0  MISS:          0
cpu0_L2C WRITEBACK ACCESS:     162940  HIT:     162925  MISS:         15
cpu0_L2C TRANSLATION ACCESS:       6612  HIT:       6594  MISS:         18
cpu0_L2C PREFETCH  REQUESTED:          0  ISSUED:          0  USEFUL:          0  USELESS:          0
cpu0_L2C AVERAGE MISS LATENCY: 31.4872 cycles
cpu0_L2C MSHR FULL EVENTS: 0 MSHR MERGE EVENTS: 0
LLC TOTAL     ACCESS:    7446426  HIT:    3267317  MISS:     455901
LLC LOAD      ACCESS:    3723174  HIT:    3267275  MISS:     455899
LLC RFO       ACCESS:          0  HIT:          0  MISS:          0
LLC PREFETCH  ACCESS:          0  HIT:          0  MISS:          0
LLC WRITEBACK ACCESS:    3723234  HIT:         26  MISS:    3723208
LLC TRANSLATION ACCESS:         18  HIT:         16  MISS:          2
LLC PREFETCH  REQUESTED:          0  ISSUED:          0  USEFUL:          0  USELESS:          0
LLC AVERAGE MISS LATENCY: 86.6469 cycles
LLC MSHR FULL EVENTS: 0 MSHR MERGE EVENTS: 0
blocks bypassed = 0
blocks filled to llc = 0

DRAM Statistics
 CHANNEL 0
 RQ ROW_BUFFER_HIT:     344680  ROW_BUFFER_MISS:     111221
 DBUS AVG_CONGESTED_CYCLE:    3.17677
 WQ ROW_BUFFER_HIT:        383  ROW_BUFFER_MISS:        731  FULL:          0


CPU 0 Branch Prediction Accuracy: 91.7512% MPKI: 16.5216 Average ROB Occupancy at Mispredict: 35.4979
Branch type MPKI
BRANCH_DIRECT_JUMP: 0
BRANCH_INDIRECT: 0
BRANCH_CONDITIONAL: 16.5216
BRANCH_DIRECT_CALL: 0
BRANCH_INDIRECT_CALL: 0
BRANCH_RETURN: 0

