
*** ChampSim Multicore Out-of-Order Simulator ***

Warmup Instructions: 40000000
Simulation Instructions: 100000000
Number of CPUs: 1
Off-chip DRAM Size: 4 GiB Channels: 1 Width: 64-bit Data Rate: 3200 MT/s

VirtualMemory physical capacity: 4293914624 num_ppages: 1048319
VirtualMemory page size: 4096 log2_page_size: 12

CPU 0 runs ../../../../ICS/traces//bc-0.trace.gz
CPU 0 Bimodal branch predictor
Basic BTB sets: 1024 ways: 8 indirect buffer size: 4096 RAS size: 64
Heartbeat CPU 0 instructions: 10000002 cycles: 3203384 heartbeat IPC: 3.1217 cumulative IPC: 3.1217 (Simulation time: 0 hr 0 min 52 sec) 
Heartbeat CPU 0 instructions: 20000001 cycles: 5712208 heartbeat IPC: 3.98593 cumulative IPC: 3.50127 (Simulation time: 0 hr 1 min 28 sec) 
Heartbeat CPU 0 instructions: 30000000 cycles: 8214327 heartbeat IPC: 3.99661 cumulative IPC: 3.65216 (Simulation time: 0 hr 2 min 5 sec) 
Heartbeat CPU 0 instructions: 40000003 cycles: 10724415 heartbeat IPC: 3.98393 cumulative IPC: 3.72981 (Simulation time: 0 hr 2 min 41 sec) 

Warmup complete CPU 0 instructions: 40000003 cycles: 10724415 (Simulation time: 0 hr 2 min 41 sec) 

Heartbeat CPU 0 instructions: 50000002 cycles: 37725611 heartbeat IPC: 0.370354 cumulative IPC: 0.370354 (Simulation time: 0 hr 3 min 47 sec) 
Heartbeat CPU 0 instructions: 60000000 cycles: 64357716 heartbeat IPC: 0.375487 cumulative IPC: 0.372903 (Simulation time: 0 hr 4 min 51 sec) 
Heartbeat CPU 0 instructions: 70000003 cycles: 90669683 heartbeat IPC: 0.380055 cumulative IPC: 0.375257 (Simulation time: 0 hr 5 min 58 sec) 
Heartbeat CPU 0 instructions: 80000000 cycles: 117005372 heartbeat IPC: 0.379713 cumulative IPC: 0.376361 (Simulation time: 0 hr 7 min 6 sec) 
Heartbeat CPU 0 instructions: 90000002 cycles: 143255593 heartbeat IPC: 0.380949 cumulative IPC: 0.37727 (Simulation time: 0 hr 8 min 13 sec) 
Heartbeat CPU 0 instructions: 100000002 cycles: 169582246 heartbeat IPC: 0.379843 cumulative IPC: 0.377696 (Simulation time: 0 hr 9 min 19 sec) 
Heartbeat CPU 0 instructions: 110000001 cycles: 196091997 heartbeat IPC: 0.37722 cumulative IPC: 0.377628 (Simulation time: 0 hr 10 min 25 sec) 
Heartbeat CPU 0 instructions: 120000003 cycles: 222938823 heartbeat IPC: 0.372484 cumulative IPC: 0.376977 (Simulation time: 0 hr 11 min 29 sec) 
Heartbeat CPU 0 instructions: 130000002 cycles: 249594944 heartbeat IPC: 0.375148 cumulative IPC: 0.376773 (Simulation time: 0 hr 12 min 31 sec) 
Heartbeat CPU 0 instructions: 140000000 cycles: 276304700 heartbeat IPC: 0.374395 cumulative IPC: 0.376534 (Simulation time: 0 hr 13 min 33 sec) 
Finished CPU 0 instructions: 100000000 cycles: 265580305 cumulative IPC: 0.376534 (Simulation time: 0 hr 13 min 33 sec) 

ChampSim completed all CPUs

Region of Interest Statistics

CPU 0 cumulative IPC: 0.376534 instructions: 100000000 cycles: 265580305
cpu0_DTLB TOTAL     ACCESS:   22675651  HIT:   19188899  MISS:    3486752
cpu0_DTLB LOAD      ACCESS:   18215013  HIT:   15896554  MISS:    2318459
cpu0_DTLB RFO       ACCESS:    4460638  HIT:    3292345  MISS:    1168293
cpu0_DTLB PREFETCH  ACCESS:          0  HIT:          0  MISS:          0
cpu0_DTLB WRITEBACK ACCESS:          0  HIT:          0  MISS:          0
cpu0_DTLB TRANSLATION ACCESS:          0  HIT:          0  MISS:          0
cpu0_DTLB PREFETCH  REQUESTED:          0  ISSUED:          0  USEFUL:          0  USELESS:          0
cpu0_DTLB AVERAGE MISS LATENCY: 12.7464 cycles
cpu0_DTLB MSHR FULL EVENTS: 7076 MSHR MERGE EVENTS: 568867
cpu0_ITLB TOTAL     ACCESS:   12571345  HIT:   12571345  MISS:          0
cpu0_ITLB LOAD      ACCESS:   12571345  HIT:   12571345  MISS:          0
cpu0_ITLB RFO       ACCESS:          0  HIT:          0  MISS:          0
cpu0_ITLB PREFETCH  ACCESS:          0  HIT:          0  MISS:          0
cpu0_ITLB WRITEBACK ACCESS:          0  HIT:          0  MISS:          0
cpu0_ITLB TRANSLATION ACCESS:          0  HIT:          0  MISS:          0
cpu0_ITLB PREFETCH  REQUESTED:          0  ISSUED:          0  USEFUL:          0  USELESS:          0
cpu0_ITLB AVERAGE MISS LATENCY: -nan cycles
cpu0_ITLB MSHR FULL EVENTS: 0 MSHR MERGE EVENTS: 0
cpu0_L1I TOTAL     ACCESS:        188  HIT:        188  MISS:          0
cpu0_L1I LOAD      ACCESS:        188  HIT:        188  MISS:          0
cpu0_L1I RFO       ACCESS:          0  HIT:          0  MISS:          0
cpu0_L1I PREFETCH  ACCESS:          0  HIT:          0  MISS:          0
cpu0_L1I WRITEBACK ACCESS:          0  HIT:          0  MISS:          0
cpu0_L1I TRANSLATION ACCESS:          0  HIT:          0  MISS:          0
cpu0_L1I PREFETCH  REQUESTED:          0  ISSUED:          0  USEFUL:          0  USELESS:          0
cpu0_L1I AVERAGE MISS LATENCY: -nan cycles
cpu0_L1I MSHR FULL EVENTS: 0 MSHR MERGE EVENTS: 0
cpu0_STLB TOTAL     ACCESS:    3486752  HIT:    2023745  MISS:    1463007
cpu0_STLB LOAD      ACCESS:    2318459  HIT:    1594112  MISS:     724347
cpu0_STLB RFO       ACCESS:    1168293  HIT:     429633  MISS:     738660
cpu0_STLB PREFETCH  ACCESS:          0  HIT:          0  MISS:          0
cpu0_STLB WRITEBACK ACCESS:          0  HIT:          0  MISS:          0
cpu0_STLB TRANSLATION ACCESS:          0  HIT:          0  MISS:          0
cpu0_STLB PREFETCH  REQUESTED:          0  ISSUED:          0  USEFUL:          0  USELESS:          0
cpu0_STLB AVERAGE MISS LATENCY: 9.72704 cycles
cpu0_STLB MSHR FULL EVENTS: 0 MSHR MERGE EVENTS: 0
cpu0_L1D TOTAL     ACCESS:   26738411  HIT:   18118276  MISS:    8620135
cpu0_L1D LOAD      ACCESS:   20548978  HIT:   11957464  MISS:    8591514
cpu0_L1D RFO       ACCESS:    4770841  HIT:    4748136  MISS:      22705
cpu0_L1D PREFETCH  ACCESS:          0  HIT:          0  MISS:          0
cpu0_L1D WRITEBACK ACCESS:          0  HIT:          0  MISS:          0
cpu0_L1D TRANSLATION ACCESS:    1418592  HIT:    1412676  MISS:       5916
cpu0_L1D PREFETCH  REQUESTED:          0  ISSUED:          0  USEFUL:          0  USELESS:          0
cpu0_L1D AVERAGE MISS LATENCY: 32.1103 cycles
cpu0_L1D MSHR FULL EVENTS: 208775 MSHR MERGE EVENTS: 258578
cpu0_L2C TOTAL     ACCESS:   11019399  HIT:    4633225  MISS:    6386132
cpu0_L2C LOAD      ACCESS:    8591514  HIT:    2227938  MISS:    6363576
cpu0_L2C RFO       ACCESS:      22705  HIT:        324  MISS:      22381
cpu0_L2C PREFETCH  ACCESS:          0  HIT:          0  MISS:          0
cpu0_L2C WRITEBACK ACCESS:    2399264  HIT:    2399222  MISS:         42
cpu0_L2C TRANSLATION ACCESS:       5916  HIT:       5741  MISS:        175
cpu0_L2C PREFETCH  REQUESTED:          0  ISSUED:          0  USEFUL:          0  USELESS:          0
cpu0_L2C AVERAGE MISS LATENCY: 29.2156 cycles
cpu0_L2C MSHR FULL EVENTS: 0 MSHR MERGE EVENTS: 0
LLC TOTAL     ACCESS:   12772295  HIT:    5919659  MISS:     466473
LLC LOAD      ACCESS:    6363565  HIT:    5908426  MISS:     455139
LLC RFO       ACCESS:      22381  HIT:      11068  MISS:      11313
LLC PREFETCH  ACCESS:          0  HIT:          0  MISS:          0
LLC WRITEBACK ACCESS:    6386174  HIT:         11  MISS:    6386163
LLC TRANSLATION ACCESS:        175  HIT:        154  MISS:         21
LLC PREFETCH  REQUESTED:          0  ISSUED:          0  USEFUL:          0  USELESS:          0
LLC AVERAGE MISS LATENCY: 113.471 cycles
LLC MSHR FULL EVENTS: 0 MSHR MERGE EVENTS: 0
blocks bypassed = 0
blocks filled to llc = 0

DRAM Statistics
 CHANNEL 0
 RQ ROW_BUFFER_HIT:     236143  ROW_BUFFER_MISS:     230329
 DBUS AVG_CONGESTED_CYCLE:    3.92495
 WQ ROW_BUFFER_HIT:      12496  ROW_BUFFER_MISS:      65192  FULL:          0


CPU 0 Branch Prediction Accuracy: 82.8535% MPKI: 32.8103 Average ROB Occupancy at Mispredict: 20.4904
Branch type MPKI
BRANCH_DIRECT_JUMP: 0
BRANCH_INDIRECT: 0
BRANCH_CONDITIONAL: 32.8103
BRANCH_DIRECT_CALL: 0
BRANCH_INDIRECT_CALL: 0
BRANCH_RETURN: 0

