
*** ChampSim Multicore Out-of-Order Simulator ***

Warmup Instructions: 40000000
Simulation Instructions: 100000000
Number of CPUs: 1
Off-chip DRAM Size: 4 GiB Channels: 1 Width: 64-bit Data Rate: 3200 MT/s

VirtualMemory physical capacity: 4293914624 num_ppages: 1048319
VirtualMemory page size: 4096 log2_page_size: 12

CPU 0 runs ../../../../ICS/traces//bfs-8.trace.gz
CPU 0 Bimodal branch predictor
Basic BTB sets: 1024 ways: 8 indirect buffer size: 4096 RAS size: 64
Heartbeat CPU 0 instructions: 10000003 cycles: 2500169 heartbeat IPC: 3.99973 cumulative IPC: 3.99973 (Simulation time: 0 hr 0 min 30 sec) 
Heartbeat CPU 0 instructions: 20000003 cycles: 5242669 heartbeat IPC: 3.64631 cumulative IPC: 3.81485 (Simulation time: 0 hr 1 min 8 sec) 
Heartbeat CPU 0 instructions: 30000000 cycles: 8057628 heartbeat IPC: 3.55245 cumulative IPC: 3.72318 (Simulation time: 0 hr 1 min 49 sec) 
Heartbeat CPU 0 instructions: 40000002 cycles: 10760739 heartbeat IPC: 3.69944 cumulative IPC: 3.71722 (Simulation time: 0 hr 2 min 26 sec) 

Warmup complete CPU 0 instructions: 40000002 cycles: 10760739 (Simulation time: 0 hr 2 min 26 sec) 

Heartbeat CPU 0 instructions: 50000001 cycles: 40066472 heartbeat IPC: 0.34123 cumulative IPC: 0.34123 (Simulation time: 0 hr 3 min 24 sec) 
Heartbeat CPU 0 instructions: 60000000 cycles: 45730676 heartbeat IPC: 1.76547 cumulative IPC: 0.57192 (Simulation time: 0 hr 3 min 58 sec) 
Heartbeat CPU 0 instructions: 70000000 cycles: 56238707 heartbeat IPC: 0.951653 cumulative IPC: 0.65966 (Simulation time: 0 hr 4 min 40 sec) 
Heartbeat CPU 0 instructions: 80000001 cycles: 78038693 heartbeat IPC: 0.458716 cumulative IPC: 0.594548 (Simulation time: 0 hr 5 min 34 sec) 
Heartbeat CPU 0 instructions: 90000001 cycles: 117254870 heartbeat IPC: 0.254997 cumulative IPC: 0.469509 (Simulation time: 0 hr 6 min 51 sec) 
Heartbeat CPU 0 instructions: 100000000 cycles: 160504429 heartbeat IPC: 0.231216 cumulative IPC: 0.400685 (Simulation time: 0 hr 8 min 19 sec) 
Heartbeat CPU 0 instructions: 110000002 cycles: 211919475 heartbeat IPC: 0.194496 cumulative IPC: 0.347984 (Simulation time: 0 hr 9 min 54 sec) 
Heartbeat CPU 0 instructions: 120000002 cycles: 240634844 heartbeat IPC: 0.348246 cumulative IPC: 0.348017 (Simulation time: 0 hr 11 min 13 sec) 
Heartbeat CPU 0 instructions: 130000001 cycles: 246249329 heartbeat IPC: 1.78111 cumulative IPC: 0.382184 (Simulation time: 0 hr 11 min 55 sec) 
Heartbeat CPU 0 instructions: 140000003 cycles: 251508758 heartbeat IPC: 1.90135 cumulative IPC: 0.415372 (Simulation time: 0 hr 12 min 45 sec) 
Finished CPU 0 instructions: 100000001 cycles: 240748019 cumulative IPC: 0.415372 (Simulation time: 0 hr 12 min 45 sec) 

ChampSim completed all CPUs

Region of Interest Statistics

CPU 0 cumulative IPC: 0.415372 instructions: 100000001 cycles: 240748019
cpu0_DTLB TOTAL     ACCESS:   20063988  HIT:   19907202  MISS:     156786
cpu0_DTLB LOAD      ACCESS:   17491455  HIT:   17337911  MISS:     153544
cpu0_DTLB RFO       ACCESS:    2572533  HIT:    2569291  MISS:       3242
cpu0_DTLB PREFETCH  ACCESS:          0  HIT:          0  MISS:          0
cpu0_DTLB WRITEBACK ACCESS:          0  HIT:          0  MISS:          0
cpu0_DTLB TRANSLATION ACCESS:          0  HIT:          0  MISS:          0
cpu0_DTLB PREFETCH  REQUESTED:          0  ISSUED:          0  USEFUL:          0  USELESS:          0
cpu0_DTLB AVERAGE MISS LATENCY: 13.7786 cycles
cpu0_DTLB MSHR FULL EVENTS: 65 MSHR MERGE EVENTS: 34951
cpu0_ITLB TOTAL     ACCESS:    8914262  HIT:    8914262  MISS:          0
cpu0_ITLB LOAD      ACCESS:    8914262  HIT:    8914262  MISS:          0
cpu0_ITLB RFO       ACCESS:          0  HIT:          0  MISS:          0
cpu0_ITLB PREFETCH  ACCESS:          0  HIT:          0  MISS:          0
cpu0_ITLB WRITEBACK ACCESS:          0  HIT:          0  MISS:          0
cpu0_ITLB TRANSLATION ACCESS:          0  HIT:          0  MISS:          0
cpu0_ITLB PREFETCH  REQUESTED:          0  ISSUED:          0  USEFUL:          0  USELESS:          0
cpu0_ITLB AVERAGE MISS LATENCY: -nan cycles
cpu0_ITLB MSHR FULL EVENTS: 0 MSHR MERGE EVENTS: 0
cpu0_L1I TOTAL     ACCESS:       1762  HIT:       1747  MISS:         15
cpu0_L1I LOAD      ACCESS:       1762  HIT:       1747  MISS:         15
cpu0_L1I RFO       ACCESS:          0  HIT:          0  MISS:          0
cpu0_L1I PREFETCH  ACCESS:          0  HIT:          0  MISS:          0
cpu0_L1I WRITEBACK ACCESS:          0  HIT:          0  MISS:          0
cpu0_L1I TRANSLATION ACCESS:          0  HIT:          0  MISS:          0
cpu0_L1I PREFETCH  REQUESTED:          0  ISSUED:          0  USEFUL:          0  USELESS:          0
cpu0_L1I AVERAGE MISS LATENCY: 198.8 cycles
cpu0_L1I MSHR FULL EVENTS: 0 MSHR MERGE EVENTS: 1
cpu0_STLB TOTAL     ACCESS:     156786  HIT:      57522  MISS:      99264
cpu0_STLB LOAD      ACCESS:     153544  HIT:      55391  MISS:      98153
cpu0_STLB RFO       ACCESS:       3242  HIT:       2131  MISS:       1111
cpu0_STLB PREFETCH  ACCESS:          0  HIT:          0  MISS:          0
cpu0_STLB WRITEBACK ACCESS:          0  HIT:          0  MISS:          0
cpu0_STLB TRANSLATION ACCESS:          0  HIT:          0  MISS:          0
cpu0_STLB PREFETCH  REQUESTED:          0  ISSUED:          0  USEFUL:          0  USELESS:          0
cpu0_STLB AVERAGE MISS LATENCY: 8.52133 cycles
cpu0_STLB MSHR FULL EVENTS: 0 MSHR MERGE EVENTS: 0
cpu0_L1D TOTAL     ACCESS:   15375394  HIT:   13166620  MISS:    2208774
cpu0_L1D LOAD      ACCESS:   12602608  HIT:   10490338  MISS:    2112270
cpu0_L1D RFO       ACCESS:    2676045  HIT:    2580956  MISS:      95089
cpu0_L1D PREFETCH  ACCESS:          0  HIT:          0  MISS:          0
cpu0_L1D WRITEBACK ACCESS:          0  HIT:          0  MISS:          0
cpu0_L1D TRANSLATION ACCESS:      96741  HIT:      95326  MISS:       1415
cpu0_L1D PREFETCH  REQUESTED:          0  ISSUED:          0  USEFUL:          0  USELESS:          0
cpu0_L1D AVERAGE MISS LATENCY: 79.8068 cycles
cpu0_L1D MSHR FULL EVENTS: 95583 MSHR MERGE EVENTS: 947861
cpu0_L2C TOTAL     ACCESS:    2473106  HIT:     825765  MISS:    1647336
cpu0_L2C LOAD      ACCESS:    2112284  HIT:     554282  MISS:    1558002
cpu0_L2C RFO       ACCESS:      95089  HIT:       5858  MISS:      89231
cpu0_L2C PREFETCH  ACCESS:          0  HIT:          0  MISS:          0
cpu0_L2C WRITEBACK ACCESS:     264318  HIT:     264313  MISS:          5
cpu0_L2C TRANSLATION ACCESS:       1415  HIT:       1312  MISS:        103
cpu0_L2C PREFETCH  REQUESTED:          0  ISSUED:          0  USEFUL:          0  USELESS:          0
cpu0_L2C AVERAGE MISS LATENCY: 93.2125 cycles
cpu0_L2C MSHR FULL EVENTS: 0 MSHR MERGE EVENTS: 0
LLC TOTAL     ACCESS:    3294677  HIT:     802562  MISS:     844774
LLC LOAD      ACCESS:    1558002  HIT:     721139  MISS:     836863
LLC RFO       ACCESS:      89231  HIT:      81338  MISS:       7893
LLC PREFETCH  ACCESS:          0  HIT:          0  MISS:          0
LLC WRITEBACK ACCESS:    1647341  HIT:          0  MISS:    1647341
LLC TRANSLATION ACCESS:        103  HIT:         85  MISS:         18
LLC PREFETCH  REQUESTED:          0  ISSUED:          0  USEFUL:          0  USELESS:          0
LLC AVERAGE MISS LATENCY: 141.816 cycles
LLC MSHR FULL EVENTS: 0 MSHR MERGE EVENTS: 0
blocks bypassed = 0
blocks filled to llc = 0

DRAM Statistics
 CHANNEL 0
 RQ ROW_BUFFER_HIT:     201285  ROW_BUFFER_MISS:     643475
 DBUS AVG_CONGESTED_CYCLE:    3.48158
 WQ ROW_BUFFER_HIT:      74061  ROW_BUFFER_MISS:      51684  FULL:         84


CPU 0 Branch Prediction Accuracy: 85.9714% MPKI: 31.4272 Average ROB Occupancy at Mispredict: 8.82564
Branch type MPKI
BRANCH_DIRECT_JUMP: 5e-05
BRANCH_INDIRECT: 1e-05
BRANCH_CONDITIONAL: 31.4268
BRANCH_DIRECT_CALL: 0.00012
BRANCH_INDIRECT_CALL: 2e-05
BRANCH_RETURN: 0.00012

