
*** ChampSim Multicore Out-of-Order Simulator ***

Warmup Instructions: 40000000
Simulation Instructions: 100000000
Number of CPUs: 1
Off-chip DRAM Size: 4 GiB Channels: 1 Width: 64-bit Data Rate: 3200 MT/s

VirtualMemory physical capacity: 4293914624 num_ppages: 1048319
VirtualMemory page size: 4096 log2_page_size: 12

CPU 0 runs ../../../../ICS/traces//bfs-14.trace.gz
CPU 0 Bimodal branch predictor
Basic BTB sets: 1024 ways: 8 indirect buffer size: 4096 RAS size: 64
Heartbeat CPU 0 instructions: 10000001 cycles: 2500160 heartbeat IPC: 3.99974 cumulative IPC: 3.99974 (Simulation time: 0 hr 0 min 30 sec) 
Heartbeat CPU 0 instructions: 20000000 cycles: 5241283 heartbeat IPC: 3.64814 cumulative IPC: 3.81586 (Simulation time: 0 hr 1 min 23 sec) 
Heartbeat CPU 0 instructions: 30000001 cycles: 7989312 heartbeat IPC: 3.63897 cumulative IPC: 3.75502 (Simulation time: 0 hr 2 min 15 sec) 
Heartbeat CPU 0 instructions: 40000002 cycles: 10709329 heartbeat IPC: 3.67645 cumulative IPC: 3.73506 (Simulation time: 0 hr 3 min 8 sec) 

Warmup complete CPU 0 instructions: 40000002 cycles: 10709329 (Simulation time: 0 hr 3 min 8 sec) 

Heartbeat CPU 0 instructions: 50000002 cycles: 63114777 heartbeat IPC: 0.19082 cumulative IPC: 0.19082 (Simulation time: 0 hr 5 min 18 sec) 
Heartbeat CPU 0 instructions: 60000004 cycles: 88040537 heartbeat IPC: 0.401191 cumulative IPC: 0.258628 (Simulation time: 0 hr 6 min 32 sec) 
Heartbeat CPU 0 instructions: 70000001 cycles: 90561914 heartbeat IPC: 3.96609 cumulative IPC: 0.375692 (Simulation time: 0 hr 7 min 10 sec) 
Heartbeat CPU 0 instructions: 80000001 cycles: 98776446 heartbeat IPC: 1.21735 cumulative IPC: 0.454199 (Simulation time: 0 hr 8 min 7 sec) 
Heartbeat CPU 0 instructions: 90000000 cycles: 117698800 heartbeat IPC: 0.528475 cumulative IPC: 0.467336 (Simulation time: 0 hr 9 min 13 sec) 
Heartbeat CPU 0 instructions: 100000000 cycles: 156554392 heartbeat IPC: 0.257363 cumulative IPC: 0.411395 (Simulation time: 0 hr 11 min 1 sec) 
Heartbeat CPU 0 instructions: 110000002 cycles: 199809877 heartbeat IPC: 0.231185 cumulative IPC: 0.370173 (Simulation time: 0 hr 13 min 9 sec) 
Heartbeat CPU 0 instructions: 120000004 cycles: 251289845 heartbeat IPC: 0.19425 cumulative IPC: 0.332529 (Simulation time: 0 hr 15 min 17 sec) 
Heartbeat CPU 0 instructions: 130000001 cycles: 284092234 heartbeat IPC: 0.304856 cumulative IPC: 0.329209 (Simulation time: 0 hr 16 min 0 sec) 
Heartbeat CPU 0 instructions: 140000002 cycles: 292476136 heartbeat IPC: 1.19276 cumulative IPC: 0.354903 (Simulation time: 0 hr 16 min 23 sec) 
Finished CPU 0 instructions: 100000000 cycles: 281766807 cumulative IPC: 0.354903 (Simulation time: 0 hr 16 min 23 sec) 

ChampSim completed all CPUs

Region of Interest Statistics

CPU 0 cumulative IPC: 0.354903 instructions: 100000000 cycles: 281766807
cpu0_DTLB TOTAL     ACCESS:   20556281  HIT:   20459086  MISS:      97195
cpu0_DTLB LOAD      ACCESS:   18083043  HIT:   17987543  MISS:      95500
cpu0_DTLB RFO       ACCESS:    2473238  HIT:    2471543  MISS:       1695
cpu0_DTLB PREFETCH  ACCESS:          0  HIT:          0  MISS:          0
cpu0_DTLB WRITEBACK ACCESS:          0  HIT:          0  MISS:          0
cpu0_DTLB TRANSLATION ACCESS:          0  HIT:          0  MISS:          0
cpu0_DTLB PREFETCH  REQUESTED:          0  ISSUED:          0  USEFUL:          0  USELESS:          0
cpu0_DTLB AVERAGE MISS LATENCY: 15.4203 cycles
cpu0_DTLB MSHR FULL EVENTS: 5 MSHR MERGE EVENTS: 23249
cpu0_ITLB TOTAL     ACCESS:    9272500  HIT:    9272500  MISS:          0
cpu0_ITLB LOAD      ACCESS:    9272500  HIT:    9272500  MISS:          0
cpu0_ITLB RFO       ACCESS:          0  HIT:          0  MISS:          0
cpu0_ITLB PREFETCH  ACCESS:          0  HIT:          0  MISS:          0
cpu0_ITLB WRITEBACK ACCESS:          0  HIT:          0  MISS:          0
cpu0_ITLB TRANSLATION ACCESS:          0  HIT:          0  MISS:          0
cpu0_ITLB PREFETCH  REQUESTED:          0  ISSUED:          0  USEFUL:          0  USELESS:          0
cpu0_ITLB AVERAGE MISS LATENCY: -nan cycles
cpu0_ITLB MSHR FULL EVENTS: 0 MSHR MERGE EVENTS: 0
cpu0_L1I TOTAL     ACCESS:       1150  HIT:       1135  MISS:         15
cpu0_L1I LOAD      ACCESS:       1150  HIT:       1135  MISS:         15
cpu0_L1I RFO       ACCESS:          0  HIT:          0  MISS:          0
cpu0_L1I PREFETCH  ACCESS:          0  HIT:          0  MISS:          0
cpu0_L1I WRITEBACK ACCESS:          0  HIT:          0  MISS:          0
cpu0_L1I TRANSLATION ACCESS:          0  HIT:          0  MISS:          0
cpu0_L1I PREFETCH  REQUESTED:          0  ISSUED:          0  USEFUL:          0  USELESS:          0
cpu0_L1I AVERAGE MISS LATENCY: 220.4 cycles
cpu0_L1I MSHR FULL EVENTS: 0 MSHR MERGE EVENTS: 0
cpu0_STLB TOTAL     ACCESS:      97195  HIT:      13501  MISS:      83694
cpu0_STLB LOAD      ACCESS:      95500  HIT:      12903  MISS:      82597
cpu0_STLB RFO       ACCESS:       1695  HIT:        598  MISS:       1097
cpu0_STLB PREFETCH  ACCESS:          0  HIT:          0  MISS:          0
cpu0_STLB WRITEBACK ACCESS:          0  HIT:          0  MISS:          0
cpu0_STLB TRANSLATION ACCESS:          0  HIT:          0  MISS:          0
cpu0_STLB PREFETCH  REQUESTED:          0  ISSUED:          0  USEFUL:          0  USELESS:          0
cpu0_STLB AVERAGE MISS LATENCY: 8.45859 cycles
cpu0_STLB MSHR FULL EVENTS: 0 MSHR MERGE EVENTS: 0
cpu0_L1D TOTAL     ACCESS:   16975253  HIT:   14635146  MISS:    2340107
cpu0_L1D LOAD      ACCESS:   14342701  HIT:   12085492  MISS:    2257209
cpu0_L1D RFO       ACCESS:    2549193  HIT:    2467814  MISS:      81379
cpu0_L1D PREFETCH  ACCESS:          0  HIT:          0  MISS:          0
cpu0_L1D WRITEBACK ACCESS:          0  HIT:          0  MISS:          0
cpu0_L1D TRANSLATION ACCESS:      83359  HIT:      81840  MISS:       1519
cpu0_L1D PREFETCH  REQUESTED:          0  ISSUED:          0  USEFUL:          0  USELESS:          0
cpu0_L1D AVERAGE MISS LATENCY: 85.7258 cycles
cpu0_L1D MSHR FULL EVENTS: 41029 MSHR MERGE EVENTS: 647730
cpu0_L2C TOTAL     ACCESS:    2613642  HIT:     895317  MISS:    1718319
cpu0_L2C LOAD      ACCESS:    2257224  HIT:     614389  MISS:    1642835
cpu0_L2C RFO       ACCESS:      81379  HIT:       6001  MISS:      75378
cpu0_L2C PREFETCH  ACCESS:          0  HIT:          0  MISS:          0
cpu0_L2C WRITEBACK ACCESS:     273520  HIT:     273514  MISS:          6
cpu0_L2C TRANSLATION ACCESS:       1519  HIT:       1413  MISS:        106
cpu0_L2C PREFETCH  REQUESTED:          0  ISSUED:          0  USEFUL:          0  USELESS:          0
cpu0_L2C AVERAGE MISS LATENCY: 102.73 cycles
cpu0_L2C MSHR FULL EVENTS: 0 MSHR MERGE EVENTS: 0
LLC TOTAL     ACCESS:    3436644  HIT:     731338  MISS:     986981
LLC LOAD      ACCESS:    1642835  HIT:     660888  MISS:     981947
LLC RFO       ACCESS:      75378  HIT:      70371  MISS:       5007
LLC PREFETCH  ACCESS:          0  HIT:          0  MISS:          0
LLC WRITEBACK ACCESS:    1718325  HIT:          0  MISS:    1718325
LLC TRANSLATION ACCESS:        106  HIT:         79  MISS:         27
LLC PREFETCH  REQUESTED:          0  ISSUED:          0  USEFUL:          0  USELESS:          0
LLC AVERAGE MISS LATENCY: 143.291 cycles
LLC MSHR FULL EVENTS: 0 MSHR MERGE EVENTS: 0
blocks bypassed = 0
blocks filled to llc = 0

DRAM Statistics
 CHANNEL 0
 RQ ROW_BUFFER_HIT:     212825  ROW_BUFFER_MISS:     774154
 DBUS AVG_CONGESTED_CYCLE:      3.424
 WQ ROW_BUFFER_HIT:      91357  ROW_BUFFER_MISS:      62402  FULL:          0


CPU 0 Branch Prediction Accuracy: 83.0199% MPKI: 37.4286 Average ROB Occupancy at Mispredict: 6.74932
Branch type MPKI
BRANCH_DIRECT_JUMP: 5e-05
BRANCH_INDIRECT: 1e-05
BRANCH_CONDITIONAL: 37.4282
BRANCH_DIRECT_CALL: 0.00012
BRANCH_INDIRECT_CALL: 2e-05
BRANCH_RETURN: 0.00012

