
*** ChampSim Multicore Out-of-Order Simulator ***

Warmup Instructions: 40000000
Simulation Instructions: 100000000
Number of CPUs: 1
Off-chip DRAM Size: 4 GiB Channels: 1 Width: 64-bit Data Rate: 3200 MT/s

VirtualMemory physical capacity: 4293914624 num_ppages: 1048319
VirtualMemory page size: 4096 log2_page_size: 12

CPU 0 runs ../../../../ICS/traces//CF.184750M.champsimtrace.xz
CPU 0 Bimodal branch predictor
Basic BTB sets: 1024 ways: 8 indirect buffer size: 4096 RAS size: 64
Heartbeat CPU 0 instructions: 10000001 cycles: 2500068 heartbeat IPC: 3.99989 cumulative IPC: 3.99989 (Simulation time: 0 hr 0 min 40 sec) 
Heartbeat CPU 0 instructions: 20000001 cycles: 5000068 heartbeat IPC: 4 cumulative IPC: 3.99995 (Simulation time: 0 hr 1 min 23 sec) 
Heartbeat CPU 0 instructions: 30000001 cycles: 7500068 heartbeat IPC: 4 cumulative IPC: 3.99996 (Simulation time: 0 hr 2 min 6 sec) 
Heartbeat CPU 0 instructions: 40000001 cycles: 10000068 heartbeat IPC: 4 cumulative IPC: 3.99997 (Simulation time: 0 hr 2 min 46 sec) 

Warmup complete CPU 0 instructions: 40000001 cycles: 10000068 (Simulation time: 0 hr 2 min 46 sec) 

Heartbeat CPU 0 instructions: 50000000 cycles: 18293571 heartbeat IPC: 1.20576 cumulative IPC: 1.20576 (Simulation time: 0 hr 4 min 3 sec) 
Heartbeat CPU 0 instructions: 60000003 cycles: 26094461 heartbeat IPC: 1.28191 cumulative IPC: 1.24267 (Simulation time: 0 hr 5 min 11 sec) 
Heartbeat CPU 0 instructions: 70000004 cycles: 35350667 heartbeat IPC: 1.08036 cumulative IPC: 1.1834 (Simulation time: 0 hr 6 min 47 sec) 
Heartbeat CPU 0 instructions: 80000003 cycles: 44428125 heartbeat IPC: 1.10163 cumulative IPC: 1.16184 (Simulation time: 0 hr 8 min 22 sec) 
Heartbeat CPU 0 instructions: 90000001 cycles: 53551963 heartbeat IPC: 1.09603 cumulative IPC: 1.14806 (Simulation time: 0 hr 9 min 46 sec) 
Heartbeat CPU 0 instructions: 100000000 cycles: 62062656 heartbeat IPC: 1.17499 cumulative IPC: 1.15246 (Simulation time: 0 hr 11 min 5 sec) 
Heartbeat CPU 0 instructions: 110000001 cycles: 71448794 heartbeat IPC: 1.0654 cumulative IPC: 1.13916 (Simulation time: 0 hr 12 min 23 sec) 
Heartbeat CPU 0 instructions: 120000000 cycles: 80598976 heartbeat IPC: 1.09287 cumulative IPC: 1.13316 (Simulation time: 0 hr 13 min 25 sec) 
Heartbeat CPU 0 instructions: 130000001 cycles: 89569739 heartbeat IPC: 1.11473 cumulative IPC: 1.13108 (Simulation time: 0 hr 14 min 25 sec) 
Heartbeat CPU 0 instructions: 140000000 cycles: 99350353 heartbeat IPC: 1.02243 cumulative IPC: 1.11919 (Simulation time: 0 hr 15 min 9 sec) 
Finished CPU 0 instructions: 100000004 cycles: 89350286 cumulative IPC: 1.11919 (Simulation time: 0 hr 15 min 9 sec) 

ChampSim completed all CPUs

Region of Interest Statistics

CPU 0 cumulative IPC: 1.11919 instructions: 100000004 cycles: 89350286
cpu0_DTLB TOTAL     ACCESS:   16165143  HIT:   15828156  MISS:     336987
cpu0_DTLB LOAD      ACCESS:   14248806  HIT:   13911824  MISS:     336982
cpu0_DTLB RFO       ACCESS:    1916337  HIT:    1916332  MISS:          5
cpu0_DTLB PREFETCH  ACCESS:          0  HIT:          0  MISS:          0
cpu0_DTLB WRITEBACK ACCESS:          0  HIT:          0  MISS:          0
cpu0_DTLB TRANSLATION ACCESS:          0  HIT:          0  MISS:          0
cpu0_DTLB PREFETCH  REQUESTED:          0  ISSUED:          0  USEFUL:          0  USELESS:          0
cpu0_DTLB AVERAGE MISS LATENCY: 36.9846 cycles
cpu0_DTLB MSHR FULL EVENTS: 0 MSHR MERGE EVENTS: 318611
cpu0_ITLB TOTAL     ACCESS:   10442438  HIT:   10442438  MISS:          0
cpu0_ITLB LOAD      ACCESS:   10442438  HIT:   10442438  MISS:          0
cpu0_ITLB RFO       ACCESS:          0  HIT:          0  MISS:          0
cpu0_ITLB PREFETCH  ACCESS:          0  HIT:          0  MISS:          0
cpu0_ITLB WRITEBACK ACCESS:          0  HIT:          0  MISS:          0
cpu0_ITLB TRANSLATION ACCESS:          0  HIT:          0  MISS:          0
cpu0_ITLB PREFETCH  REQUESTED:          0  ISSUED:          0  USEFUL:          0  USELESS:          0
cpu0_ITLB AVERAGE MISS LATENCY: -nan cycles
cpu0_ITLB MSHR FULL EVENTS: 0 MSHR MERGE EVENTS: 0
cpu0_STLB TOTAL     ACCESS:     336987  HIT:     165677  MISS:     171310
cpu0_STLB LOAD      ACCESS:     336982  HIT:     165675  MISS:     171307
cpu0_STLB RFO       ACCESS:          5  HIT:          2  MISS:          3
cpu0_STLB PREFETCH  ACCESS:          0  HIT:          0  MISS:          0
cpu0_STLB WRITEBACK ACCESS:          0  HIT:          0  MISS:          0
cpu0_STLB TRANSLATION ACCESS:          0  HIT:          0  MISS:          0
cpu0_STLB PREFETCH  REQUESTED:          0  ISSUED:          0  USEFUL:          0  USELESS:          0
cpu0_STLB AVERAGE MISS LATENCY: 56.0577 cycles
cpu0_STLB MSHR FULL EVENTS: 0 MSHR MERGE EVENTS: 0
cpu0_L1D TOTAL     ACCESS:   13998019  HIT:   12890080  MISS:    1107939
cpu0_L1D LOAD      ACCESS:    9224508  HIT:    8124379  MISS:    1100129
cpu0_L1D RFO       ACCESS:    4602210  HIT:    4602210  MISS:          0
cpu0_L1D PREFETCH  ACCESS:          0  HIT:          0  MISS:          0
cpu0_L1D WRITEBACK ACCESS:          0  HIT:          0  MISS:          0
cpu0_L1D TRANSLATION ACCESS:     171301  HIT:     163491  MISS:       7810
cpu0_L1D PREFETCH  REQUESTED:          0  ISSUED:          0  USEFUL:          0  USELESS:          0
cpu0_L1D AVERAGE MISS LATENCY: 179.291 cycles
cpu0_L1D MSHR FULL EVENTS: 0 MSHR MERGE EVENTS: 1621566
cpu0_L2C TOTAL     ACCESS:    1255946  HIT:     233536  MISS:    1022410
cpu0_L2C LOAD      ACCESS:    1100129  HIT:      77948  MISS:    1022181
cpu0_L2C RFO       ACCESS:          0  HIT:          0  MISS:          0
cpu0_L2C PREFETCH  ACCESS:          0  HIT:          0  MISS:          0
cpu0_L2C WRITEBACK ACCESS:     148007  HIT:     148007  MISS:          0
cpu0_L2C TRANSLATION ACCESS:       7810  HIT:       7581  MISS:        229
cpu0_L2C PREFETCH  REQUESTED:          0  ISSUED:          0  USEFUL:          0  USELESS:          0
cpu0_L2C AVERAGE MISS LATENCY: 183.353 cycles
cpu0_L2C MSHR FULL EVENTS: 0 MSHR MERGE EVENTS: 0
LLC TOTAL     ACCESS:    2044819  HIT:     123571  MISS:     898839
LLC LOAD      ACCESS:    1022181  HIT:     123344  MISS:     898837
LLC RFO       ACCESS:          0  HIT:          0  MISS:          0
LLC PREFETCH  ACCESS:          0  HIT:          0  MISS:          0
LLC WRITEBACK ACCESS:    1022409  HIT:          0  MISS:    1022409
LLC TRANSLATION ACCESS:        229  HIT:        227  MISS:          2
LLC PREFETCH  REQUESTED:          0  ISSUED:          0  USEFUL:          0  USELESS:          0
LLC AVERAGE MISS LATENCY: 185.672 cycles
LLC MSHR FULL EVENTS: 0 MSHR MERGE EVENTS: 0
blocks bypassed = 0
blocks filled to llc = 0

DRAM Statistics
 CHANNEL 0
 RQ ROW_BUFFER_HIT:      15762  ROW_BUFFER_MISS:     883077
 DBUS AVG_CONGESTED_CYCLE:    3.82792
 WQ ROW_BUFFER_HIT:      21334  ROW_BUFFER_MISS:     123398  FULL:          0


CPU 0 Branch Prediction Accuracy: 88.9163% MPKI: 15.3833 Average ROB Occupancy at Mispredict: 214.269
Branch type MPKI
BRANCH_DIRECT_JUMP: 0
BRANCH_INDIRECT: 0
BRANCH_CONDITIONAL: 15.3833
BRANCH_DIRECT_CALL: 0
BRANCH_INDIRECT_CALL: 0
BRANCH_RETURN: 0

