
*** ChampSim Multicore Out-of-Order Simulator ***

Warmup Instructions: 40000000
Simulation Instructions: 100000000
Number of CPUs: 1
Off-chip DRAM Size: 4 GiB Channels: 1 Width: 64-bit Data Rate: 3200 MT/s

VirtualMemory physical capacity: 4293914624 num_ppages: 1048319
VirtualMemory page size: 4096 log2_page_size: 12

CPU 0 runs ../../../../ICS/traces//bc-12.trace.gz
CPU 0 Bimodal branch predictor
Basic BTB sets: 1024 ways: 8 indirect buffer size: 4096 RAS size: 64
Heartbeat CPU 0 instructions: 10000003 cycles: 3161879 heartbeat IPC: 3.16268 cumulative IPC: 3.16268 (Simulation time: 0 hr 0 min 54 sec) 
Heartbeat CPU 0 instructions: 20000003 cycles: 5714051 heartbeat IPC: 3.91823 cumulative IPC: 3.50014 (Simulation time: 0 hr 1 min 37 sec) 
Heartbeat CPU 0 instructions: 30000000 cycles: 8259748 heartbeat IPC: 3.9282 cumulative IPC: 3.63207 (Simulation time: 0 hr 2 min 18 sec) 
Heartbeat CPU 0 instructions: 40000004 cycles: 10816169 heartbeat IPC: 3.91172 cumulative IPC: 3.69817 (Simulation time: 0 hr 2 min 59 sec) 

Warmup complete CPU 0 instructions: 40000004 cycles: 10816169 (Simulation time: 0 hr 2 min 59 sec) 

Heartbeat CPU 0 instructions: 50000004 cycles: 36820117 heartbeat IPC: 0.384557 cumulative IPC: 0.384557 (Simulation time: 0 hr 4 min 22 sec) 
Heartbeat CPU 0 instructions: 60000001 cycles: 62620122 heartbeat IPC: 0.387597 cumulative IPC: 0.386071 (Simulation time: 0 hr 5 min 53 sec) 
Heartbeat CPU 0 instructions: 70000000 cycles: 88562259 heartbeat IPC: 0.385473 cumulative IPC: 0.385871 (Simulation time: 0 hr 7 min 22 sec) 
Heartbeat CPU 0 instructions: 80000002 cycles: 114516580 heartbeat IPC: 0.385292 cumulative IPC: 0.385727 (Simulation time: 0 hr 8 min 53 sec) 
Heartbeat CPU 0 instructions: 90000000 cycles: 140323016 heartbeat IPC: 0.3875 cumulative IPC: 0.38608 (Simulation time: 0 hr 10 min 17 sec) 
Heartbeat CPU 0 instructions: 100000001 cycles: 166047308 heartbeat IPC: 0.388738 cumulative IPC: 0.38652 (Simulation time: 0 hr 11 min 49 sec) 
Heartbeat CPU 0 instructions: 110000000 cycles: 191716895 heartbeat IPC: 0.389566 cumulative IPC: 0.386953 (Simulation time: 0 hr 13 min 7 sec) 
Heartbeat CPU 0 instructions: 120000001 cycles: 216880460 heartbeat IPC: 0.3974 cumulative IPC: 0.388228 (Simulation time: 0 hr 14 min 12 sec) 
Heartbeat CPU 0 instructions: 130000000 cycles: 242557309 heartbeat IPC: 0.389456 cumulative IPC: 0.388364 (Simulation time: 0 hr 15 min 1 sec) 
Heartbeat CPU 0 instructions: 140000000 cycles: 267613025 heartbeat IPC: 0.399111 cumulative IPC: 0.389413 (Simulation time: 0 hr 15 min 59 sec) 
Finished CPU 0 instructions: 100000001 cycles: 256796880 cumulative IPC: 0.389413 (Simulation time: 0 hr 15 min 59 sec) 

ChampSim completed all CPUs

Region of Interest Statistics

CPU 0 cumulative IPC: 0.389413 instructions: 100000001 cycles: 256796880
cpu0_DTLB TOTAL     ACCESS:   23546451  HIT:   19902073  MISS:    3644378
cpu0_DTLB LOAD      ACCESS:   18514294  HIT:   16149569  MISS:    2364725
cpu0_DTLB RFO       ACCESS:    5032157  HIT:    3752504  MISS:    1279653
cpu0_DTLB PREFETCH  ACCESS:          0  HIT:          0  MISS:          0
cpu0_DTLB WRITEBACK ACCESS:          0  HIT:          0  MISS:          0
cpu0_DTLB TRANSLATION ACCESS:          0  HIT:          0  MISS:          0
cpu0_DTLB PREFETCH  REQUESTED:          0  ISSUED:          0  USEFUL:          0  USELESS:          0
cpu0_DTLB AVERAGE MISS LATENCY: 12.8061 cycles
cpu0_DTLB MSHR FULL EVENTS: 3644 MSHR MERGE EVENTS: 510462
cpu0_ITLB TOTAL     ACCESS:   11872189  HIT:   11872189  MISS:          0
cpu0_ITLB LOAD      ACCESS:   11872189  HIT:   11872189  MISS:          0
cpu0_ITLB RFO       ACCESS:          0  HIT:          0  MISS:          0
cpu0_ITLB PREFETCH  ACCESS:          0  HIT:          0  MISS:          0
cpu0_ITLB WRITEBACK ACCESS:          0  HIT:          0  MISS:          0
cpu0_ITLB TRANSLATION ACCESS:          0  HIT:          0  MISS:          0
cpu0_ITLB PREFETCH  REQUESTED:          0  ISSUED:          0  USEFUL:          0  USELESS:          0
cpu0_ITLB AVERAGE MISS LATENCY: -nan cycles
cpu0_ITLB MSHR FULL EVENTS: 0 MSHR MERGE EVENTS: 0
cpu0_L1I TOTAL     ACCESS:        187  HIT:        187  MISS:          0
cpu0_L1I LOAD      ACCESS:        187  HIT:        187  MISS:          0
cpu0_L1I RFO       ACCESS:          0  HIT:          0  MISS:          0
cpu0_L1I PREFETCH  ACCESS:          0  HIT:          0  MISS:          0
cpu0_L1I WRITEBACK ACCESS:          0  HIT:          0  MISS:          0
cpu0_L1I TRANSLATION ACCESS:          0  HIT:          0  MISS:          0
cpu0_L1I PREFETCH  REQUESTED:          0  ISSUED:          0  USEFUL:          0  USELESS:          0
cpu0_L1I AVERAGE MISS LATENCY: -nan cycles
cpu0_L1I MSHR FULL EVENTS: 0 MSHR MERGE EVENTS: 0
cpu0_STLB TOTAL     ACCESS:    3644378  HIT:    2025357  MISS:    1619021
cpu0_STLB LOAD      ACCESS:    2364725  HIT:    1505999  MISS:     858726
cpu0_STLB RFO       ACCESS:    1279653  HIT:     519358  MISS:     760295
cpu0_STLB PREFETCH  ACCESS:          0  HIT:          0  MISS:          0
cpu0_STLB WRITEBACK ACCESS:          0  HIT:          0  MISS:          0
cpu0_STLB TRANSLATION ACCESS:          0  HIT:          0  MISS:          0
cpu0_STLB PREFETCH  REQUESTED:          0  ISSUED:          0  USEFUL:          0  USELESS:          0
cpu0_STLB AVERAGE MISS LATENCY: 9.4375 cycles
cpu0_STLB MSHR FULL EVENTS: 0 MSHR MERGE EVENTS: 0
cpu0_L1D TOTAL     ACCESS:   30497678  HIT:   21974708  MISS:    8522970
cpu0_L1D LOAD      ACCESS:   23294275  HIT:   14799544  MISS:    8494731
cpu0_L1D RFO       ACCESS:    5643251  HIT:    5620451  MISS:      22800
cpu0_L1D PREFETCH  ACCESS:          0  HIT:          0  MISS:          0
cpu0_L1D WRITEBACK ACCESS:          0  HIT:          0  MISS:          0
cpu0_L1D TRANSLATION ACCESS:    1560152  HIT:    1554713  MISS:       5439
cpu0_L1D PREFETCH  REQUESTED:          0  ISSUED:          0  USEFUL:          0  USELESS:          0
cpu0_L1D AVERAGE MISS LATENCY: 31.8247 cycles
cpu0_L1D MSHR FULL EVENTS: 199183 MSHR MERGE EVENTS: 191497
cpu0_L2C TOTAL     ACCESS:   11374481  HIT:    4961049  MISS:    6413416
cpu0_L2C LOAD      ACCESS:    8494730  HIT:    2103953  MISS:    6390777
cpu0_L2C RFO       ACCESS:      22800  HIT:        289  MISS:      22511
cpu0_L2C PREFETCH  ACCESS:          0  HIT:          0  MISS:          0
cpu0_L2C WRITEBACK ACCESS:    2851512  HIT:    2851496  MISS:         16
cpu0_L2C TRANSLATION ACCESS:       5439  HIT:       5311  MISS:        128
cpu0_L2C PREFETCH  REQUESTED:          0  ISSUED:          0  USEFUL:          0  USELESS:          0
cpu0_L2C AVERAGE MISS LATENCY: 28.3926 cycles
cpu0_L2C MSHR FULL EVENTS: 0 MSHR MERGE EVENTS: 0
LLC TOTAL     ACCESS:   12826838  HIT:    5987820  MISS:     425596
LLC LOAD      ACCESS:    6390768  HIT:    5976442  MISS:     414326
LLC RFO       ACCESS:      22511  HIT:      11247  MISS:      11264
LLC PREFETCH  ACCESS:          0  HIT:          0  MISS:          0
LLC WRITEBACK ACCESS:    6413431  HIT:          9  MISS:    6413422
LLC TRANSLATION ACCESS:        128  HIT:        122  MISS:          6
LLC PREFETCH  REQUESTED:          0  ISSUED:          0  USEFUL:          0  USELESS:          0
LLC AVERAGE MISS LATENCY: 112.399 cycles
LLC MSHR FULL EVENTS: 0 MSHR MERGE EVENTS: 0
blocks bypassed = 0
blocks filled to llc = 0

DRAM Statistics
 CHANNEL 0
 RQ ROW_BUFFER_HIT:     220090  ROW_BUFFER_MISS:     205506
 DBUS AVG_CONGESTED_CYCLE:    3.94132
 WQ ROW_BUFFER_HIT:      11122  ROW_BUFFER_MISS:      62200  FULL:          0


CPU 0 Branch Prediction Accuracy: 81.7743% MPKI: 31.8287 Average ROB Occupancy at Mispredict: 22.1365
Branch type MPKI
BRANCH_DIRECT_JUMP: 0
BRANCH_INDIRECT: 0
BRANCH_CONDITIONAL: 31.8287
BRANCH_DIRECT_CALL: 0
BRANCH_INDIRECT_CALL: 0
BRANCH_RETURN: 0

