
*** ChampSim Multicore Out-of-Order Simulator ***

Warmup Instructions: 40000000
Simulation Instructions: 100000000
Number of CPUs: 1
Off-chip DRAM Size: 4 GiB Channels: 1 Width: 64-bit Data Rate: 3200 MT/s

VirtualMemory physical capacity: 4293914624 num_ppages: 1048319
VirtualMemory page size: 4096 log2_page_size: 12

CPU 0 runs ../../../../ICS/traces//sssp-14.trace.gz
CPU 0 Bimodal branch predictor
Basic BTB sets: 1024 ways: 8 indirect buffer size: 4096 RAS size: 64
Heartbeat CPU 0 instructions: 10000002 cycles: 2979086 heartbeat IPC: 3.35673 cumulative IPC: 3.35673 (Simulation time: 0 hr 0 min 53 sec) 
Heartbeat CPU 0 instructions: 20000004 cycles: 6324136 heartbeat IPC: 2.98949 cumulative IPC: 3.16249 (Simulation time: 0 hr 1 min 46 sec) 
Heartbeat CPU 0 instructions: 30000003 cycles: 9852166 heartbeat IPC: 2.83444 cumulative IPC: 3.04502 (Simulation time: 0 hr 2 min 36 sec) 
Heartbeat CPU 0 instructions: 40000000 cycles: 13451656 heartbeat IPC: 2.77817 cumulative IPC: 2.97361 (Simulation time: 0 hr 3 min 26 sec) 

Warmup complete CPU 0 instructions: 40000005 cycles: 13451657 (Simulation time: 0 hr 3 min 26 sec) 

Heartbeat CPU 0 instructions: 50000001 cycles: 29269499 heartbeat IPC: 0.632197 cumulative IPC: 0.632197 (Simulation time: 0 hr 4 min 23 sec) 
Heartbeat CPU 0 instructions: 60000004 cycles: 44738804 heartbeat IPC: 0.646442 cumulative IPC: 0.63924 (Simulation time: 0 hr 5 min 24 sec) 
Heartbeat CPU 0 instructions: 70000001 cycles: 59304942 heartbeat IPC: 0.686524 cumulative IPC: 0.654261 (Simulation time: 0 hr 6 min 26 sec) 
Heartbeat CPU 0 instructions: 80000002 cycles: 72959585 heartbeat IPC: 0.732352 cumulative IPC: 0.672179 (Simulation time: 0 hr 7 min 24 sec) 
Heartbeat CPU 0 instructions: 90000000 cycles: 86005127 heartbeat IPC: 0.766545 cumulative IPC: 0.689147 (Simulation time: 0 hr 8 min 26 sec) 
Heartbeat CPU 0 instructions: 100000001 cycles: 98646949 heartbeat IPC: 0.791025 cumulative IPC: 0.704264 (Simulation time: 0 hr 9 min 29 sec) 
Heartbeat CPU 0 instructions: 110000000 cycles: 110945803 heartbeat IPC: 0.813084 cumulative IPC: 0.717992 (Simulation time: 0 hr 10 min 30 sec) 
Heartbeat CPU 0 instructions: 120000000 cycles: 122812376 heartbeat IPC: 0.842703 cumulative IPC: 0.731524 (Simulation time: 0 hr 11 min 34 sec) 
Heartbeat CPU 0 instructions: 130000002 cycles: 134202822 heartbeat IPC: 0.877929 cumulative IPC: 0.745334 (Simulation time: 0 hr 12 min 37 sec) 
Heartbeat CPU 0 instructions: 140000004 cycles: 145586128 heartbeat IPC: 0.87848 cumulative IPC: 0.756805 (Simulation time: 0 hr 13 min 38 sec) 
Finished CPU 0 instructions: 100000004 cycles: 132134472 cumulative IPC: 0.756805 (Simulation time: 0 hr 13 min 38 sec) 

ChampSim completed all CPUs

Region of Interest Statistics

CPU 0 cumulative IPC: 0.756805 instructions: 100000004 cycles: 132134472
cpu0_DTLB TOTAL     ACCESS:   24840803  HIT:   22831916  MISS:    2008887
cpu0_DTLB LOAD      ACCESS:   23883813  HIT:   22254912  MISS:    1628901
cpu0_DTLB RFO       ACCESS:     956990  HIT:     577004  MISS:     379986
cpu0_DTLB PREFETCH  ACCESS:          0  HIT:          0  MISS:          0
cpu0_DTLB WRITEBACK ACCESS:          0  HIT:          0  MISS:          0
cpu0_DTLB TRANSLATION ACCESS:          0  HIT:          0  MISS:          0
cpu0_DTLB PREFETCH  REQUESTED:          0  ISSUED:          0  USEFUL:          0  USELESS:          0
cpu0_DTLB AVERAGE MISS LATENCY: 10.8189 cycles
cpu0_DTLB MSHR FULL EVENTS: 410 MSHR MERGE EVENTS: 568977
cpu0_ITLB TOTAL     ACCESS:    8822834  HIT:    8822834  MISS:          0
cpu0_ITLB LOAD      ACCESS:    8822834  HIT:    8822834  MISS:          0
cpu0_ITLB RFO       ACCESS:          0  HIT:          0  MISS:          0
cpu0_ITLB PREFETCH  ACCESS:          0  HIT:          0  MISS:          0
cpu0_ITLB WRITEBACK ACCESS:          0  HIT:          0  MISS:          0
cpu0_ITLB TRANSLATION ACCESS:          0  HIT:          0  MISS:          0
cpu0_ITLB PREFETCH  REQUESTED:          0  ISSUED:          0  USEFUL:          0  USELESS:          0
cpu0_ITLB AVERAGE MISS LATENCY: -nan cycles
cpu0_ITLB MSHR FULL EVENTS: 0 MSHR MERGE EVENTS: 0
cpu0_L1I TOTAL     ACCESS:      14501  HIT:      14501  MISS:          0
cpu0_L1I LOAD      ACCESS:      14501  HIT:      14501  MISS:          0
cpu0_L1I RFO       ACCESS:          0  HIT:          0  MISS:          0
cpu0_L1I PREFETCH  ACCESS:          0  HIT:          0  MISS:          0
cpu0_L1I WRITEBACK ACCESS:          0  HIT:          0  MISS:          0
cpu0_L1I TRANSLATION ACCESS:          0  HIT:          0  MISS:          0
cpu0_L1I PREFETCH  REQUESTED:          0  ISSUED:          0  USEFUL:          0  USELESS:          0
cpu0_L1I AVERAGE MISS LATENCY: -nan cycles
cpu0_L1I MSHR FULL EVENTS: 0 MSHR MERGE EVENTS: 0
cpu0_STLB TOTAL     ACCESS:    2008887  HIT:    1982365  MISS:      26522
cpu0_STLB LOAD      ACCESS:    1628901  HIT:    1607135  MISS:      21766
cpu0_STLB RFO       ACCESS:     379986  HIT:     375230  MISS:       4756
cpu0_STLB PREFETCH  ACCESS:          0  HIT:          0  MISS:          0
cpu0_STLB WRITEBACK ACCESS:          0  HIT:          0  MISS:          0
cpu0_STLB TRANSLATION ACCESS:          0  HIT:          0  MISS:          0
cpu0_STLB PREFETCH  REQUESTED:          0  ISSUED:          0  USEFUL:          0  USELESS:          0
cpu0_STLB AVERAGE MISS LATENCY: 129.623 cycles
cpu0_STLB MSHR FULL EVENTS: 0 MSHR MERGE EVENTS: 0
cpu0_L1D TOTAL     ACCESS:   20057552  HIT:   14716781  MISS:    5340771
cpu0_L1D LOAD      ACCESS:   18614194  HIT:   13588625  MISS:    5025569
cpu0_L1D RFO       ACCESS:    1416960  HIT:    1110800  MISS:     306160
cpu0_L1D PREFETCH  ACCESS:          0  HIT:          0  MISS:          0
cpu0_L1D WRITEBACK ACCESS:          0  HIT:          0  MISS:          0
cpu0_L1D TRANSLATION ACCESS:      26398  HIT:      17356  MISS:       9042
cpu0_L1D PREFETCH  REQUESTED:          0  ISSUED:          0  USEFUL:          0  USELESS:          0
cpu0_L1D AVERAGE MISS LATENCY: 36.5124 cycles
cpu0_L1D MSHR FULL EVENTS: 1121543 MSHR MERGE EVENTS: 2809395
cpu0_L2C TOTAL     ACCESS:    6231839  HIT:    3001660  MISS:    3229848
cpu0_L2C LOAD      ACCESS:    5025561  HIT:    1872448  MISS:    3153113
cpu0_L2C RFO       ACCESS:     306143  HIT:     231057  MISS:      75086
cpu0_L2C PREFETCH  ACCESS:          0  HIT:          0  MISS:          0
cpu0_L2C WRITEBACK ACCESS:     891093  HIT:     890762  MISS:        331
cpu0_L2C TRANSLATION ACCESS:       9042  HIT:       7393  MISS:       1649
cpu0_L2C PREFETCH  REQUESTED:          0  ISSUED:          0  USEFUL:          0  USELESS:          0
cpu0_L2C AVERAGE MISS LATENCY: 42.7141 cycles
cpu0_L2C MSHR FULL EVENTS: 0 MSHR MERGE EVENTS: 0
LLC TOTAL     ACCESS:    6459965  HIT:    2582492  MISS:     647354
LLC LOAD      ACCESS:    3153059  HIT:    2551713  MISS:     601346
LLC RFO       ACCESS:      75083  HIT:      29076  MISS:      46007
LLC PREFETCH  ACCESS:          0  HIT:          0  MISS:          0
LLC WRITEBACK ACCESS:    3230174  HIT:         55  MISS:    3230119
LLC TRANSLATION ACCESS:       1649  HIT:       1648  MISS:          1
LLC PREFETCH  REQUESTED:          0  ISSUED:          0  USEFUL:          0  USELESS:          0
LLC AVERAGE MISS LATENCY: 109.278 cycles
LLC MSHR FULL EVENTS: 0 MSHR MERGE EVENTS: 0
blocks bypassed = 0
blocks filled to llc = 0

DRAM Statistics
 CHANNEL 0
 RQ ROW_BUFFER_HIT:     411406  ROW_BUFFER_MISS:     235941
 DBUS AVG_CONGESTED_CYCLE:    3.90957
 WQ ROW_BUFFER_HIT:      16143  ROW_BUFFER_MISS:      54468  FULL:          0


CPU 0 Branch Prediction Accuracy: 94.5287% MPKI: 8.11525 Average ROB Occupancy at Mispredict: 83.2068
Branch type MPKI
BRANCH_DIRECT_JUMP: 1e-05
BRANCH_INDIRECT: 0
BRANCH_CONDITIONAL: 8.11524
BRANCH_DIRECT_CALL: 0
BRANCH_INDIRECT_CALL: 0
BRANCH_RETURN: 0

