
*** ChampSim Multicore Out-of-Order Simulator ***

Warmup Instructions: 40000000
Simulation Instructions: 100000000
Number of CPUs: 1
Off-chip DRAM Size: 4 GiB Channels: 1 Width: 64-bit Data Rate: 3200 MT/s

VirtualMemory physical capacity: 4293914624 num_ppages: 1048319
VirtualMemory page size: 4096 log2_page_size: 12

CPU 0 runs ../../../../ICS/traces//bfs-3.trace.gz
CPU 0 Bimodal branch predictor
Basic BTB sets: 1024 ways: 8 indirect buffer size: 4096 RAS size: 64
Heartbeat CPU 0 instructions: 10000003 cycles: 2500170 heartbeat IPC: 3.99973 cumulative IPC: 3.99973 (Simulation time: 0 hr 0 min 29 sec) 
Heartbeat CPU 0 instructions: 20000000 cycles: 5135342 heartbeat IPC: 3.79482 cumulative IPC: 3.89458 (Simulation time: 0 hr 1 min 7 sec) 
Heartbeat CPU 0 instructions: 30000002 cycles: 7762178 heartbeat IPC: 3.80686 cumulative IPC: 3.86489 (Simulation time: 0 hr 1 min 45 sec) 
Heartbeat CPU 0 instructions: 40000000 cycles: 10388439 heartbeat IPC: 3.80769 cumulative IPC: 3.85043 (Simulation time: 0 hr 2 min 24 sec) 

Warmup complete CPU 0 instructions: 40000005 cycles: 10388440 (Simulation time: 0 hr 2 min 24 sec) 

Heartbeat CPU 0 instructions: 50000000 cycles: 58418359 heartbeat IPC: 0.208204 cumulative IPC: 0.208203 (Simulation time: 0 hr 3 min 58 sec) 
Heartbeat CPU 0 instructions: 60000000 cycles: 110779669 heartbeat IPC: 0.190981 cumulative IPC: 0.199221 (Simulation time: 0 hr 5 min 42 sec) 
Heartbeat CPU 0 instructions: 70000003 cycles: 136641995 heartbeat IPC: 0.386663 cumulative IPC: 0.237617 (Simulation time: 0 hr 6 min 38 sec) 
Heartbeat CPU 0 instructions: 80000001 cycles: 139238390 heartbeat IPC: 3.85149 cumulative IPC: 0.310439 (Simulation time: 0 hr 7 min 5 sec) 
Heartbeat CPU 0 instructions: 90000002 cycles: 148449359 heartbeat IPC: 1.08566 cumulative IPC: 0.362159 (Simulation time: 0 hr 7 min 44 sec) 
Heartbeat CPU 0 instructions: 100000000 cycles: 166108104 heartbeat IPC: 0.566292 cumulative IPC: 0.385308 (Simulation time: 0 hr 8 min 30 sec) 
Heartbeat CPU 0 instructions: 110000002 cycles: 192511280 heartbeat IPC: 0.378742 cumulative IPC: 0.384356 (Simulation time: 0 hr 9 min 40 sec) 
Heartbeat CPU 0 instructions: 120000001 cycles: 232923135 heartbeat IPC: 0.247452 cumulative IPC: 0.359494 (Simulation time: 0 hr 11 min 2 sec) 
Heartbeat CPU 0 instructions: 130000003 cycles: 277824243 heartbeat IPC: 0.222712 cumulative IPC: 0.336529 (Simulation time: 0 hr 12 min 26 sec) 
Heartbeat CPU 0 instructions: 140000000 cycles: 291870241 heartbeat IPC: 0.711946 cumulative IPC: 0.355263 (Simulation time: 0 hr 13 min 6 sec) 
Finished CPU 0 instructions: 100000000 cycles: 281481803 cumulative IPC: 0.355263 (Simulation time: 0 hr 13 min 6 sec) 

ChampSim completed all CPUs

Region of Interest Statistics

CPU 0 cumulative IPC: 0.355263 instructions: 100000000 cycles: 281481803
cpu0_DTLB TOTAL     ACCESS:   20843974  HIT:   20682783  MISS:     161191
cpu0_DTLB LOAD      ACCESS:   17958762  HIT:   17803500  MISS:     155262
cpu0_DTLB RFO       ACCESS:    2885212  HIT:    2879283  MISS:       5929
cpu0_DTLB PREFETCH  ACCESS:          0  HIT:          0  MISS:          0
cpu0_DTLB WRITEBACK ACCESS:          0  HIT:          0  MISS:          0
cpu0_DTLB TRANSLATION ACCESS:          0  HIT:          0  MISS:          0
cpu0_DTLB PREFETCH  REQUESTED:          0  ISSUED:          0  USEFUL:          0  USELESS:          0
cpu0_DTLB AVERAGE MISS LATENCY: 17.8039 cycles
cpu0_DTLB MSHR FULL EVENTS: 944 MSHR MERGE EVENTS: 43158
cpu0_ITLB TOTAL     ACCESS:    9656007  HIT:    9656007  MISS:          0
cpu0_ITLB LOAD      ACCESS:    9656007  HIT:    9656007  MISS:          0
cpu0_ITLB RFO       ACCESS:          0  HIT:          0  MISS:          0
cpu0_ITLB PREFETCH  ACCESS:          0  HIT:          0  MISS:          0
cpu0_ITLB WRITEBACK ACCESS:          0  HIT:          0  MISS:          0
cpu0_ITLB TRANSLATION ACCESS:          0  HIT:          0  MISS:          0
cpu0_ITLB PREFETCH  REQUESTED:          0  ISSUED:          0  USEFUL:          0  USELESS:          0
cpu0_ITLB AVERAGE MISS LATENCY: -nan cycles
cpu0_ITLB MSHR FULL EVENTS: 0 MSHR MERGE EVENTS: 0
cpu0_L1I TOTAL     ACCESS:       1365  HIT:       1348  MISS:         17
cpu0_L1I LOAD      ACCESS:       1365  HIT:       1348  MISS:         17
cpu0_L1I RFO       ACCESS:          0  HIT:          0  MISS:          0
cpu0_L1I PREFETCH  ACCESS:          0  HIT:          0  MISS:          0
cpu0_L1I WRITEBACK ACCESS:          0  HIT:          0  MISS:          0
cpu0_L1I TRANSLATION ACCESS:          0  HIT:          0  MISS:          0
cpu0_L1I PREFETCH  REQUESTED:          0  ISSUED:          0  USEFUL:          0  USELESS:          0
cpu0_L1I AVERAGE MISS LATENCY: 222.941 cycles
cpu0_L1I MSHR FULL EVENTS: 0 MSHR MERGE EVENTS: 0
cpu0_STLB TOTAL     ACCESS:     161191  HIT:      77930  MISS:      83261
cpu0_STLB LOAD      ACCESS:     155262  HIT:      73267  MISS:      81995
cpu0_STLB RFO       ACCESS:       5929  HIT:       4663  MISS:       1266
cpu0_STLB PREFETCH  ACCESS:          0  HIT:          0  MISS:          0
cpu0_STLB WRITEBACK ACCESS:          0  HIT:          0  MISS:          0
cpu0_STLB TRANSLATION ACCESS:          0  HIT:          0  MISS:          0
cpu0_STLB PREFETCH  REQUESTED:          0  ISSUED:          0  USEFUL:          0  USELESS:          0
cpu0_STLB AVERAGE MISS LATENCY: 17.945 cycles
cpu0_STLB MSHR FULL EVENTS: 0 MSHR MERGE EVENTS: 0
cpu0_L1D TOTAL     ACCESS:   17157579  HIT:   14439534  MISS:    2718045
cpu0_L1D LOAD      ACCESS:   13917467  HIT:   11299046  MISS:    2618421
cpu0_L1D RFO       ACCESS:    3157572  HIT:    3059603  MISS:      97969
cpu0_L1D PREFETCH  ACCESS:          0  HIT:          0  MISS:          0
cpu0_L1D WRITEBACK ACCESS:          0  HIT:          0  MISS:          0
cpu0_L1D TRANSLATION ACCESS:      82540  HIT:      80885  MISS:       1655
cpu0_L1D PREFETCH  REQUESTED:          0  ISSUED:          0  USEFUL:          0  USELESS:          0
cpu0_L1D AVERAGE MISS LATENCY: 81.608 cycles
cpu0_L1D MSHR FULL EVENTS: 183929 MSHR MERGE EVENTS: 770482
cpu0_L2C TOTAL     ACCESS:    3169785  HIT:    1258377  MISS:    1911393
cpu0_L2C LOAD      ACCESS:    2618427  HIT:     795083  MISS:    1823344
cpu0_L2C RFO       ACCESS:      97969  HIT:      10051  MISS:      87918
cpu0_L2C PREFETCH  ACCESS:          0  HIT:          0  MISS:          0
cpu0_L2C WRITEBACK ACCESS:     451734  HIT:     451719  MISS:         15
cpu0_L2C TRANSLATION ACCESS:       1655  HIT:       1524  MISS:        131
cpu0_L2C PREFETCH  REQUESTED:          0  ISSUED:          0  USEFUL:          0  USELESS:          0
cpu0_L2C AVERAGE MISS LATENCY: 101.286 cycles
cpu0_L2C MSHR FULL EVENTS: 0 MSHR MERGE EVENTS: 0
LLC TOTAL     ACCESS:    3822799  HIT:     839265  MISS:    1072127
LLC LOAD      ACCESS:    1823343  HIT:     764166  MISS:    1059177
LLC RFO       ACCESS:      87917  HIT:      74999  MISS:      12918
LLC PREFETCH  ACCESS:          0  HIT:          0  MISS:          0
LLC WRITEBACK ACCESS:    1911408  HIT:          1  MISS:    1911407
LLC TRANSLATION ACCESS:        131  HIT:         99  MISS:         32
LLC PREFETCH  REQUESTED:          0  ISSUED:          0  USEFUL:          0  USELESS:          0
LLC AVERAGE MISS LATENCY: 144.133 cycles
LLC MSHR FULL EVENTS: 0 MSHR MERGE EVENTS: 0
blocks bypassed = 0
blocks filled to llc = 0

DRAM Statistics
 CHANNEL 0
 RQ ROW_BUFFER_HIT:     229345  ROW_BUFFER_MISS:     842774
 DBUS AVG_CONGESTED_CYCLE:    3.48147
 WQ ROW_BUFFER_HIT:      89667  ROW_BUFFER_MISS:      46502  FULL:          0


CPU 0 Branch Prediction Accuracy: 84.0197% MPKI: 33.7857 Average ROB Occupancy at Mispredict: 9.23596
Branch type MPKI
BRANCH_DIRECT_JUMP: 6e-05
BRANCH_INDIRECT: 1e-05
BRANCH_CONDITIONAL: 33.7854
BRANCH_DIRECT_CALL: 0.00013
BRANCH_INDIRECT_CALL: 2e-05
BRANCH_RETURN: 0.00013

