
*** ChampSim Multicore Out-of-Order Simulator ***

Warmup Instructions: 40000000
Simulation Instructions: 100000000
Number of CPUs: 1
Off-chip DRAM Size: 4 GiB Channels: 1 Width: 64-bit Data Rate: 3200 MT/s

VirtualMemory physical capacity: 4293914624 num_ppages: 1048319
VirtualMemory page size: 4096 log2_page_size: 12

CPU 0 runs ../../../../ICS/traces//sssp-3.trace.gz
CPU 0 Bimodal branch predictor
Basic BTB sets: 1024 ways: 8 indirect buffer size: 4096 RAS size: 64
Heartbeat CPU 0 instructions: 10000002 cycles: 2980178 heartbeat IPC: 3.3555 cumulative IPC: 3.3555 (Simulation time: 0 hr 0 min 54 sec) 
Heartbeat CPU 0 instructions: 20000001 cycles: 6362102 heartbeat IPC: 2.9569 cumulative IPC: 3.14362 (Simulation time: 0 hr 1 min 56 sec) 
Heartbeat CPU 0 instructions: 30000002 cycles: 9909298 heartbeat IPC: 2.81913 cumulative IPC: 3.02746 (Simulation time: 0 hr 3 min 4 sec) 
Heartbeat CPU 0 instructions: 40000001 cycles: 13481115 heartbeat IPC: 2.7997 cumulative IPC: 2.96711 (Simulation time: 0 hr 4 min 8 sec) 

Warmup complete CPU 0 instructions: 40000001 cycles: 13481115 (Simulation time: 0 hr 4 min 8 sec) 

Heartbeat CPU 0 instructions: 50000002 cycles: 29771996 heartbeat IPC: 0.61384 cumulative IPC: 0.61384 (Simulation time: 0 hr 5 min 31 sec) 
Heartbeat CPU 0 instructions: 60000002 cycles: 45043859 heartbeat IPC: 0.654799 cumulative IPC: 0.633659 (Simulation time: 0 hr 6 min 54 sec) 
Heartbeat CPU 0 instructions: 70000003 cycles: 59485671 heartbeat IPC: 0.692434 cumulative IPC: 0.652109 (Simulation time: 0 hr 8 min 17 sec) 
Heartbeat CPU 0 instructions: 80000000 cycles: 73262164 heartbeat IPC: 0.725874 cumulative IPC: 0.669108 (Simulation time: 0 hr 9 min 41 sec) 
Heartbeat CPU 0 instructions: 90000000 cycles: 86699577 heartbeat IPC: 0.744191 cumulative IPC: 0.682888 (Simulation time: 0 hr 11 min 1 sec) 
Heartbeat CPU 0 instructions: 100000000 cycles: 99365952 heartbeat IPC: 0.789492 cumulative IPC: 0.69861 (Simulation time: 0 hr 12 min 19 sec) 
Heartbeat CPU 0 instructions: 110000004 cycles: 111898618 heartbeat IPC: 0.797915 cumulative IPC: 0.711256 (Simulation time: 0 hr 13 min 20 sec) 
Heartbeat CPU 0 instructions: 120000000 cycles: 123669980 heartbeat IPC: 0.849519 cumulative IPC: 0.726026 (Simulation time: 0 hr 14 min 47 sec) 
Heartbeat CPU 0 instructions: 130000002 cycles: 135237518 heartbeat IPC: 0.864488 cumulative IPC: 0.739181 (Simulation time: 0 hr 16 min 18 sec) 
Heartbeat CPU 0 instructions: 140000000 cycles: 146376235 heartbeat IPC: 0.897769 cumulative IPC: 0.752473 (Simulation time: 0 hr 17 min 50 sec) 
Finished CPU 0 instructions: 100000001 cycles: 132895153 cumulative IPC: 0.752473 (Simulation time: 0 hr 17 min 50 sec) 

ChampSim completed all CPUs

Region of Interest Statistics

CPU 0 cumulative IPC: 0.752473 instructions: 100000001 cycles: 132895153
cpu0_DTLB TOTAL     ACCESS:   24608409  HIT:   22684439  MISS:    1923970
cpu0_DTLB LOAD      ACCESS:   23627937  HIT:   22084734  MISS:    1543203
cpu0_DTLB RFO       ACCESS:     980472  HIT:     599705  MISS:     380767
cpu0_DTLB PREFETCH  ACCESS:          0  HIT:          0  MISS:          0
cpu0_DTLB WRITEBACK ACCESS:          0  HIT:          0  MISS:          0
cpu0_DTLB TRANSLATION ACCESS:          0  HIT:          0  MISS:          0
cpu0_DTLB PREFETCH  REQUESTED:          0  ISSUED:          0  USEFUL:          0  USELESS:          0
cpu0_DTLB AVERAGE MISS LATENCY: 10.8605 cycles
cpu0_DTLB MSHR FULL EVENTS: 329 MSHR MERGE EVENTS: 559369
cpu0_ITLB TOTAL     ACCESS:    8850366  HIT:    8850366  MISS:          0
cpu0_ITLB LOAD      ACCESS:    8850366  HIT:    8850366  MISS:          0
cpu0_ITLB RFO       ACCESS:          0  HIT:          0  MISS:          0
cpu0_ITLB PREFETCH  ACCESS:          0  HIT:          0  MISS:          0
cpu0_ITLB WRITEBACK ACCESS:          0  HIT:          0  MISS:          0
cpu0_ITLB TRANSLATION ACCESS:          0  HIT:          0  MISS:          0
cpu0_ITLB PREFETCH  REQUESTED:          0  ISSUED:          0  USEFUL:          0  USELESS:          0
cpu0_ITLB AVERAGE MISS LATENCY: -nan cycles
cpu0_ITLB MSHR FULL EVENTS: 0 MSHR MERGE EVENTS: 0
cpu0_L1I TOTAL     ACCESS:      14771  HIT:      14771  MISS:          0
cpu0_L1I LOAD      ACCESS:      14771  HIT:      14771  MISS:          0
cpu0_L1I RFO       ACCESS:          0  HIT:          0  MISS:          0
cpu0_L1I PREFETCH  ACCESS:          0  HIT:          0  MISS:          0
cpu0_L1I WRITEBACK ACCESS:          0  HIT:          0  MISS:          0
cpu0_L1I TRANSLATION ACCESS:          0  HIT:          0  MISS:          0
cpu0_L1I PREFETCH  REQUESTED:          0  ISSUED:          0  USEFUL:          0  USELESS:          0
cpu0_L1I AVERAGE MISS LATENCY: -nan cycles
cpu0_L1I MSHR FULL EVENTS: 0 MSHR MERGE EVENTS: 0
cpu0_STLB TOTAL     ACCESS:    1923970  HIT:    1898648  MISS:      25322
cpu0_STLB LOAD      ACCESS:    1543203  HIT:    1522215  MISS:      20988
cpu0_STLB RFO       ACCESS:     380767  HIT:     376433  MISS:       4334
cpu0_STLB PREFETCH  ACCESS:          0  HIT:          0  MISS:          0
cpu0_STLB WRITEBACK ACCESS:          0  HIT:          0  MISS:          0
cpu0_STLB TRANSLATION ACCESS:          0  HIT:          0  MISS:          0
cpu0_STLB PREFETCH  REQUESTED:          0  ISSUED:          0  USEFUL:          0  USELESS:          0
cpu0_STLB AVERAGE MISS LATENCY: 133.187 cycles
cpu0_STLB MSHR FULL EVENTS: 0 MSHR MERGE EVENTS: 0
cpu0_L1D TOTAL     ACCESS:   22996022  HIT:   17693476  MISS:    5302546
cpu0_L1D LOAD      ACCESS:   21517232  HIT:   16531263  MISS:    4985969
cpu0_L1D RFO       ACCESS:    1453580  HIT:    1145253  MISS:     308327
cpu0_L1D PREFETCH  ACCESS:          0  HIT:          0  MISS:          0
cpu0_L1D WRITEBACK ACCESS:          0  HIT:          0  MISS:          0
cpu0_L1D TRANSLATION ACCESS:      25210  HIT:      16960  MISS:       8250
cpu0_L1D PREFETCH  REQUESTED:          0  ISSUED:          0  USEFUL:          0  USELESS:          0
cpu0_L1D AVERAGE MISS LATENCY: 36.8491 cycles
cpu0_L1D MSHR FULL EVENTS: 1182299 MSHR MERGE EVENTS: 2687766
cpu0_L2C TOTAL     ACCESS:    6204831  HIT:    2954188  MISS:    3250227
cpu0_L2C LOAD      ACCESS:    4985964  HIT:    1815629  MISS:    3170335
cpu0_L2C RFO       ACCESS:     308317  HIT:     230079  MISS:      78238
cpu0_L2C PREFETCH  ACCESS:          0  HIT:          0  MISS:          0
cpu0_L2C WRITEBACK ACCESS:     902300  HIT:     901884  MISS:        416
cpu0_L2C TRANSLATION ACCESS:       8250  HIT:       6596  MISS:       1654
cpu0_L2C PREFETCH  REQUESTED:          0  ISSUED:          0  USEFUL:          0  USELESS:          0
cpu0_L2C AVERAGE MISS LATENCY: 42.6973 cycles
cpu0_L2C MSHR FULL EVENTS: 0 MSHR MERGE EVENTS: 0
LLC TOTAL     ACCESS:    6500832  HIT:    2601794  MISS:     648431
LLC LOAD      ACCESS:    3170297  HIT:    2569030  MISS:     601267
LLC RFO       ACCESS:      78238  HIT:      31076  MISS:      47162
LLC PREFETCH  ACCESS:          0  HIT:          0  MISS:          0
LLC WRITEBACK ACCESS:    3250643  HIT:         36  MISS:    3250607
LLC TRANSLATION ACCESS:       1654  HIT:       1652  MISS:          2
LLC PREFETCH  REQUESTED:          0  ISSUED:          0  USEFUL:          0  USELESS:          0
LLC AVERAGE MISS LATENCY: 109.686 cycles
LLC MSHR FULL EVENTS: 0 MSHR MERGE EVENTS: 0
blocks bypassed = 0
blocks filled to llc = 0

DRAM Statistics
 CHANNEL 0
 RQ ROW_BUFFER_HIT:     413037  ROW_BUFFER_MISS:     235390
 DBUS AVG_CONGESTED_CYCLE:     3.8951
 WQ ROW_BUFFER_HIT:      16626  ROW_BUFFER_MISS:      54985  FULL:          0


CPU 0 Branch Prediction Accuracy: 94.4267% MPKI: 8.26397 Average ROB Occupancy at Mispredict: 81.8447
Branch type MPKI
BRANCH_DIRECT_JUMP: 1e-05
BRANCH_INDIRECT: 0
BRANCH_CONDITIONAL: 8.26396
BRANCH_DIRECT_CALL: 0
BRANCH_INDIRECT_CALL: 0
BRANCH_RETURN: 0

