
*** ChampSim Multicore Out-of-Order Simulator ***

Warmup Instructions: 40000000
Simulation Instructions: 100000000
Number of CPUs: 1
Off-chip DRAM Size: 4 GiB Channels: 1 Width: 64-bit Data Rate: 3200 MT/s

VirtualMemory physical capacity: 4293914624 num_ppages: 1048319
VirtualMemory page size: 4096 log2_page_size: 12

CPU 0 runs ../../../../ICS/traces//PageRankDelta_35250M.champsim.xz
CPU 0 Bimodal branch predictor
Basic BTB sets: 1024 ways: 8 indirect buffer size: 4096 RAS size: 64
Heartbeat CPU 0 instructions: 10000000 cycles: 2500056 heartbeat IPC: 3.99991 cumulative IPC: 3.99991 (Simulation time: 0 hr 0 min 33 sec) 
Heartbeat CPU 0 instructions: 20000000 cycles: 5000056 heartbeat IPC: 4 cumulative IPC: 3.99996 (Simulation time: 0 hr 1 min 5 sec) 
Heartbeat CPU 0 instructions: 30000000 cycles: 7500056 heartbeat IPC: 4 cumulative IPC: 3.99997 (Simulation time: 0 hr 1 min 38 sec) 
Heartbeat CPU 0 instructions: 40000000 cycles: 10000056 heartbeat IPC: 4 cumulative IPC: 3.99998 (Simulation time: 0 hr 2 min 9 sec) 

Warmup complete CPU 0 instructions: 40000004 cycles: 10000057 (Simulation time: 0 hr 2 min 9 sec) 

Heartbeat CPU 0 instructions: 50000003 cycles: 40519226 heartbeat IPC: 0.327663 cumulative IPC: 0.327663 (Simulation time: 0 hr 3 min 35 sec) 
Heartbeat CPU 0 instructions: 60000003 cycles: 59557322 heartbeat IPC: 0.525263 cumulative IPC: 0.403574 (Simulation time: 0 hr 4 min 40 sec) 
Heartbeat CPU 0 instructions: 70000001 cycles: 64522714 heartbeat IPC: 2.01394 cumulative IPC: 0.55023 (Simulation time: 0 hr 5 min 27 sec) 
Heartbeat CPU 0 instructions: 80000003 cycles: 81168202 heartbeat IPC: 0.600763 cumulative IPC: 0.562049 (Simulation time: 0 hr 7 min 42 sec) 
Heartbeat CPU 0 instructions: 90000002 cycles: 117750918 heartbeat IPC: 0.273353 cumulative IPC: 0.464033 (Simulation time: 0 hr 12 min 18 sec) 
Heartbeat CPU 0 instructions: 100000002 cycles: 201011829 heartbeat IPC: 0.120104 cumulative IPC: 0.314117 (Simulation time: 0 hr 21 min 22 sec) 
Heartbeat CPU 0 instructions: 110000001 cycles: 252143800 heartbeat IPC: 0.195572 cumulative IPC: 0.289084 (Simulation time: 0 hr 27 min 6 sec) 
Heartbeat CPU 0 instructions: 120000001 cycles: 263745343 heartbeat IPC: 0.861954 cumulative IPC: 0.315277 (Simulation time: 0 hr 28 min 52 sec) 
Heartbeat CPU 0 instructions: 130000002 cycles: 278187054 heartbeat IPC: 0.692439 cumulative IPC: 0.335587 (Simulation time: 0 hr 30 min 54 sec) 
Heartbeat CPU 0 instructions: 140000002 cycles: 287385246 heartbeat IPC: 1.08717 cumulative IPC: 0.36051 (Simulation time: 0 hr 32 min 15 sec) 
Finished CPU 0 instructions: 100000003 cycles: 277385190 cumulative IPC: 0.36051 (Simulation time: 0 hr 32 min 15 sec) 

ChampSim completed all CPUs

Region of Interest Statistics

CPU 0 cumulative IPC: 0.36051 instructions: 100000003 cycles: 277385190
cpu0_DTLB TOTAL     ACCESS:   20522581  HIT:   20484017  MISS:      38564
cpu0_DTLB LOAD      ACCESS:   14558706  HIT:   14537557  MISS:      21149
cpu0_DTLB RFO       ACCESS:    5963875  HIT:    5946460  MISS:      17415
cpu0_DTLB PREFETCH  ACCESS:          0  HIT:          0  MISS:          0
cpu0_DTLB WRITEBACK ACCESS:          0  HIT:          0  MISS:          0
cpu0_DTLB TRANSLATION ACCESS:          0  HIT:          0  MISS:          0
cpu0_DTLB PREFETCH  REQUESTED:          0  ISSUED:          0  USEFUL:          0  USELESS:          0
cpu0_DTLB AVERAGE MISS LATENCY: 123.036 cycles
cpu0_DTLB MSHR FULL EVENTS: 0 MSHR MERGE EVENTS: 196942
cpu0_ITLB TOTAL     ACCESS:    1778128  HIT:    1778119  MISS:          9
cpu0_ITLB LOAD      ACCESS:    1778128  HIT:    1778119  MISS:          9
cpu0_ITLB RFO       ACCESS:          0  HIT:          0  MISS:          0
cpu0_ITLB PREFETCH  ACCESS:          0  HIT:          0  MISS:          0
cpu0_ITLB WRITEBACK ACCESS:          0  HIT:          0  MISS:          0
cpu0_ITLB TRANSLATION ACCESS:          0  HIT:          0  MISS:          0
cpu0_ITLB PREFETCH  REQUESTED:          0  ISSUED:          0  USEFUL:          0  USELESS:          0
cpu0_ITLB AVERAGE MISS LATENCY: 310.667 cycles
cpu0_ITLB MSHR FULL EVENTS: 0 MSHR MERGE EVENTS: 0
cpu0_L1I TOTAL     ACCESS:        306  HIT:        186  MISS:        120
cpu0_L1I LOAD      ACCESS:        306  HIT:        186  MISS:        120
cpu0_L1I RFO       ACCESS:          0  HIT:          0  MISS:          0
cpu0_L1I PREFETCH  ACCESS:          0  HIT:          0  MISS:          0
cpu0_L1I WRITEBACK ACCESS:          0  HIT:          0  MISS:          0
cpu0_L1I TRANSLATION ACCESS:          0  HIT:          0  MISS:          0
cpu0_L1I PREFETCH  REQUESTED:          0  ISSUED:          0  USEFUL:          0  USELESS:          0
cpu0_L1I AVERAGE MISS LATENCY: 224.233 cycles
cpu0_L1I MSHR FULL EVENTS: 0 MSHR MERGE EVENTS: 0
cpu0_STLB TOTAL     ACCESS:      38573  HIT:         36  MISS:      38537
cpu0_STLB LOAD      ACCESS:      21158  HIT:         31  MISS:      21127
cpu0_STLB RFO       ACCESS:      17415  HIT:          5  MISS:      17410
cpu0_STLB PREFETCH  ACCESS:          0  HIT:          0  MISS:          0
cpu0_STLB WRITEBACK ACCESS:          0  HIT:          0  MISS:          0
cpu0_STLB TRANSLATION ACCESS:          0  HIT:          0  MISS:          0
cpu0_STLB PREFETCH  REQUESTED:          0  ISSUED:          0  USEFUL:          0  USELESS:          0
cpu0_STLB AVERAGE MISS LATENCY: 115.186 cycles
cpu0_STLB MSHR FULL EVENTS: 0 MSHR MERGE EVENTS: 0
cpu0_L1D TOTAL     ACCESS:    9523726  HIT:    7059847  MISS:    2463879
cpu0_L1D LOAD      ACCESS:    6980447  HIT:    5630570  MISS:    1349877
cpu0_L1D RFO       ACCESS:    2504742  HIT:    1391148  MISS:    1113594
cpu0_L1D PREFETCH  ACCESS:          0  HIT:          0  MISS:          0
cpu0_L1D WRITEBACK ACCESS:          0  HIT:          0  MISS:          0
cpu0_L1D TRANSLATION ACCESS:      38537  HIT:      38129  MISS:        408
cpu0_L1D PREFETCH  REQUESTED:          0  ISSUED:          0  USEFUL:          0  USELESS:          0
cpu0_L1D AVERAGE MISS LATENCY: 505.044 cycles
cpu0_L1D MSHR FULL EVENTS: 57742654 MSHR MERGE EVENTS: 7564632
cpu0_L2C TOTAL     ACCESS:    3665700  HIT:    1202104  MISS:    2463596
cpu0_L2C LOAD      ACCESS:    1349997  HIT:         40  MISS:    1349957
cpu0_L2C RFO       ACCESS:    1113594  HIT:          0  MISS:    1113594
cpu0_L2C PREFETCH  ACCESS:          0  HIT:          0  MISS:          0
cpu0_L2C WRITEBACK ACCESS:    1201701  HIT:    1201701  MISS:          0
cpu0_L2C TRANSLATION ACCESS:        408  HIT:        363  MISS:         45
cpu0_L2C PREFETCH  REQUESTED:          0  ISSUED:          0  USEFUL:          0  USELESS:          0
cpu0_L2C AVERAGE MISS LATENCY: 495.105 cycles
cpu0_L2C MSHR FULL EVENTS: 0 MSHR MERGE EVENTS: 0
LLC TOTAL     ACCESS:    4927192  HIT:       4377  MISS:    2459219
LLC LOAD      ACCESS:    1349957  HIT:       4365  MISS:    1345592
LLC RFO       ACCESS:    1113594  HIT:          3  MISS:    1113591
LLC PREFETCH  ACCESS:          0  HIT:          0  MISS:          0
LLC WRITEBACK ACCESS:    2463596  HIT:          0  MISS:    2463596
LLC TRANSLATION ACCESS:         45  HIT:          9  MISS:         36
LLC PREFETCH  REQUESTED:          0  ISSUED:          0  USEFUL:          0  USELESS:          0
LLC AVERAGE MISS LATENCY: 475.949 cycles
LLC MSHR FULL EVENTS: 0 MSHR MERGE EVENTS: 0
blocks bypassed = 0
blocks filled to llc = 0

DRAM Statistics
 CHANNEL 0
 RQ ROW_BUFFER_HIT:     275434  ROW_BUFFER_MISS:    2183778
 DBUS AVG_CONGESTED_CYCLE:    3.98793
 WQ ROW_BUFFER_HIT:     206024  ROW_BUFFER_MISS:     970128  FULL:          0


CPU 0 Branch Prediction Accuracy: 98.8599% MPKI: 2.49073 Average ROB Occupancy at Mispredict: 49.6614
Branch type MPKI
BRANCH_DIRECT_JUMP: 0.00026
BRANCH_INDIRECT: 0
BRANCH_CONDITIONAL: 2.49009
BRANCH_DIRECT_CALL: 0.0002
BRANCH_INDIRECT_CALL: 0
BRANCH_RETURN: 0.00018

