
*** ChampSim Multicore Out-of-Order Simulator ***

Warmup Instructions: 40000000
Simulation Instructions: 100000000
Number of CPUs: 1
Off-chip DRAM Size: 4 GiB Channels: 1 Width: 64-bit Data Rate: 3200 MT/s

VirtualMemory physical capacity: 4293914624 num_ppages: 1048319
VirtualMemory page size: 4096 log2_page_size: 12

CPU 0 runs ../../../../ICS/traces//PageRankDelta_17000M.champsim.xz
CPU 0 Bimodal branch predictor
Basic BTB sets: 1024 ways: 8 indirect buffer size: 4096 RAS size: 64
Heartbeat CPU 0 instructions: 10000001 cycles: 2686595 heartbeat IPC: 3.72218 cumulative IPC: 3.72218 (Simulation time: 0 hr 0 min 53 sec) 
Heartbeat CPU 0 instructions: 20000003 cycles: 5228147 heartbeat IPC: 3.9346 cumulative IPC: 3.82545 (Simulation time: 0 hr 1 min 40 sec) 
Heartbeat CPU 0 instructions: 30000002 cycles: 7831592 heartbeat IPC: 3.84106 cumulative IPC: 3.83064 (Simulation time: 0 hr 2 min 30 sec) 
Heartbeat CPU 0 instructions: 40000001 cycles: 10523830 heartbeat IPC: 3.71438 cumulative IPC: 3.8009 (Simulation time: 0 hr 3 min 23 sec) 

Warmup complete CPU 0 instructions: 40000001 cycles: 10523830 (Simulation time: 0 hr 3 min 23 sec) 

Heartbeat CPU 0 instructions: 50000000 cycles: 13459906 heartbeat IPC: 3.40591 cumulative IPC: 3.40591 (Simulation time: 0 hr 4 min 35 sec) 
Heartbeat CPU 0 instructions: 60000001 cycles: 21692763 heartbeat IPC: 1.21465 cumulative IPC: 1.79068 (Simulation time: 0 hr 6 min 35 sec) 
Heartbeat CPU 0 instructions: 70000001 cycles: 25544305 heartbeat IPC: 2.59636 cumulative IPC: 1.99727 (Simulation time: 0 hr 7 min 52 sec) 
Heartbeat CPU 0 instructions: 80000002 cycles: 32529370 heartbeat IPC: 1.43163 cumulative IPC: 1.81772 (Simulation time: 0 hr 9 min 45 sec) 
Heartbeat CPU 0 instructions: 90000003 cycles: 36116527 heartbeat IPC: 2.78772 cumulative IPC: 1.95368 (Simulation time: 0 hr 10 min 59 sec) 
Heartbeat CPU 0 instructions: 100000001 cycles: 42502852 heartbeat IPC: 1.56585 cumulative IPC: 1.87623 (Simulation time: 0 hr 12 min 25 sec) 
Heartbeat CPU 0 instructions: 110000001 cycles: 47446645 heartbeat IPC: 2.02274 cumulative IPC: 1.89585 (Simulation time: 0 hr 13 min 32 sec) 
Heartbeat CPU 0 instructions: 120000003 cycles: 52779640 heartbeat IPC: 1.87512 cumulative IPC: 1.89323 (Simulation time: 0 hr 14 min 35 sec) 
Heartbeat CPU 0 instructions: 130000001 cycles: 56828831 heartbeat IPC: 2.46963 cumulative IPC: 1.94363 (Simulation time: 0 hr 15 min 28 sec) 
Heartbeat CPU 0 instructions: 140000000 cycles: 61860858 heartbeat IPC: 1.98727 cumulative IPC: 1.94791 (Simulation time: 0 hr 16 min 23 sec) 
Finished CPU 0 instructions: 100000004 cycles: 51337029 cumulative IPC: 1.94791 (Simulation time: 0 hr 16 min 23 sec) 

ChampSim completed all CPUs

Region of Interest Statistics

CPU 0 cumulative IPC: 1.94791 instructions: 100000004 cycles: 51337029
cpu0_DTLB TOTAL     ACCESS:   24611089  HIT:   24557190  MISS:      53899
cpu0_DTLB LOAD      ACCESS:   13034749  HIT:   13016572  MISS:      18177
cpu0_DTLB RFO       ACCESS:   11576340  HIT:   11540618  MISS:      35722
cpu0_DTLB PREFETCH  ACCESS:          0  HIT:          0  MISS:          0
cpu0_DTLB WRITEBACK ACCESS:          0  HIT:          0  MISS:          0
cpu0_DTLB TRANSLATION ACCESS:          0  HIT:          0  MISS:          0
cpu0_DTLB PREFETCH  REQUESTED:          0  ISSUED:          0  USEFUL:          0  USELESS:          0
cpu0_DTLB AVERAGE MISS LATENCY: 32.5742 cycles
cpu0_DTLB MSHR FULL EVENTS: 27513 MSHR MERGE EVENTS: 147672
cpu0_ITLB TOTAL     ACCESS:    1576863  HIT:    1576863  MISS:          0
cpu0_ITLB LOAD      ACCESS:    1576863  HIT:    1576863  MISS:          0
cpu0_ITLB RFO       ACCESS:          0  HIT:          0  MISS:          0
cpu0_ITLB PREFETCH  ACCESS:          0  HIT:          0  MISS:          0
cpu0_ITLB WRITEBACK ACCESS:          0  HIT:          0  MISS:          0
cpu0_ITLB TRANSLATION ACCESS:          0  HIT:          0  MISS:          0
cpu0_ITLB PREFETCH  REQUESTED:          0  ISSUED:          0  USEFUL:          0  USELESS:          0
cpu0_ITLB AVERAGE MISS LATENCY: -nan cycles
cpu0_ITLB MSHR FULL EVENTS: 0 MSHR MERGE EVENTS: 0
cpu0_L1I TOTAL     ACCESS:        439  HIT:        439  MISS:          0
cpu0_L1I LOAD      ACCESS:        439  HIT:        439  MISS:          0
cpu0_L1I RFO       ACCESS:          0  HIT:          0  MISS:          0
cpu0_L1I PREFETCH  ACCESS:          0  HIT:          0  MISS:          0
cpu0_L1I WRITEBACK ACCESS:          0  HIT:          0  MISS:          0
cpu0_L1I TRANSLATION ACCESS:          0  HIT:          0  MISS:          0
cpu0_L1I PREFETCH  REQUESTED:          0  ISSUED:          0  USEFUL:          0  USELESS:          0
cpu0_L1I AVERAGE MISS LATENCY: -nan cycles
cpu0_L1I MSHR FULL EVENTS: 0 MSHR MERGE EVENTS: 0
cpu0_STLB TOTAL     ACCESS:      53899  HIT:      41747  MISS:      12152
cpu0_STLB LOAD      ACCESS:      18177  HIT:      12373  MISS:       5804
cpu0_STLB RFO       ACCESS:      35722  HIT:      29374  MISS:       6348
cpu0_STLB PREFETCH  ACCESS:          0  HIT:          0  MISS:          0
cpu0_STLB WRITEBACK ACCESS:          0  HIT:          0  MISS:          0
cpu0_STLB TRANSLATION ACCESS:          0  HIT:          0  MISS:          0
cpu0_STLB PREFETCH  REQUESTED:          0  ISSUED:          0  USEFUL:          0  USELESS:          0
cpu0_STLB AVERAGE MISS LATENCY: 105.733 cycles
cpu0_STLB MSHR FULL EVENTS: 0 MSHR MERGE EVENTS: 0
cpu0_L1D TOTAL     ACCESS:   25107178  HIT:   22636197  MISS:    2470981
cpu0_L1D LOAD      ACCESS:    8558492  HIT:    7184651  MISS:    1373841
cpu0_L1D RFO       ACCESS:   16538396  HIT:   15442553  MISS:    1095843
cpu0_L1D PREFETCH  ACCESS:          0  HIT:          0  MISS:          0
cpu0_L1D WRITEBACK ACCESS:          0  HIT:          0  MISS:          0
cpu0_L1D TRANSLATION ACCESS:      10290  HIT:       8993  MISS:       1297
cpu0_L1D PREFETCH  REQUESTED:          0  ISSUED:          0  USEFUL:          0  USELESS:          0
cpu0_L1D AVERAGE MISS LATENCY: 163.228 cycles
cpu0_L1D MSHR FULL EVENTS: 19268511 MSHR MERGE EVENTS: 5576151
cpu0_L2C TOTAL     ACCESS:    3568829  HIT:    1557752  MISS:    2011044
cpu0_L2C LOAD      ACCESS:    1373820  HIT:     395162  MISS:     978658
cpu0_L2C RFO       ACCESS:    1095718  HIT:      63397  MISS:    1032321
cpu0_L2C PREFETCH  ACCESS:          0  HIT:          0  MISS:          0
cpu0_L2C WRITEBACK ACCESS:    1097994  HIT:    1097961  MISS:         33
cpu0_L2C TRANSLATION ACCESS:       1297  HIT:       1232  MISS:         65
cpu0_L2C PREFETCH  REQUESTED:          0  ISSUED:          0  USEFUL:          0  USELESS:          0
cpu0_L2C AVERAGE MISS LATENCY: 193.577 cycles
cpu0_L2C MSHR FULL EVENTS: 459080 MSHR MERGE EVENTS: 0
LLC TOTAL     ACCESS:    4022118  HIT:    1469818  MISS:     541224
LLC LOAD      ACCESS:     978655  HIT:     725405  MISS:     253250
LLC RFO       ACCESS:    1032321  HIT:     744351  MISS:     287970
LLC PREFETCH  ACCESS:          0  HIT:          0  MISS:          0
LLC WRITEBACK ACCESS:    2011077  HIT:          1  MISS:    2011076
LLC TRANSLATION ACCESS:         65  HIT:         61  MISS:          4
LLC PREFETCH  REQUESTED:          0  ISSUED:          0  USEFUL:          0  USELESS:          0
LLC AVERAGE MISS LATENCY: 611.436 cycles
LLC MSHR FULL EVENTS: 0 MSHR MERGE EVENTS: 0
blocks bypassed = 0
blocks filled to llc = 0

DRAM Statistics
 CHANNEL 0
 RQ ROW_BUFFER_HIT:     134539  ROW_BUFFER_MISS:     406503
 DBUS AVG_CONGESTED_CYCLE:    3.96192
 WQ ROW_BUFFER_HIT:      33692  ROW_BUFFER_MISS:     255840  FULL:     712607


CPU 0 Branch Prediction Accuracy: 98.3866% MPKI: 1.63398 Average ROB Occupancy at Mispredict: 169.596
Branch type MPKI
BRANCH_DIRECT_JUMP: 0
BRANCH_INDIRECT: 0
BRANCH_CONDITIONAL: 1.63397
BRANCH_DIRECT_CALL: 0
BRANCH_INDIRECT_CALL: 0
BRANCH_RETURN: 1e-05

