
*** ChampSim Multicore Out-of-Order Simulator ***

Warmup Instructions: 40000000
Simulation Instructions: 100000000
Number of CPUs: 1
Off-chip DRAM Size: 4 GiB Channels: 1 Width: 64-bit Data Rate: 3200 MT/s

VirtualMemory physical capacity: 4293914624 num_ppages: 1048319
VirtualMemory page size: 4096 log2_page_size: 12

CPU 0 runs ../../../../ICS/traces//BFSCC_17000M.champsim.xz
CPU 0 Bimodal branch predictor
Basic BTB sets: 1024 ways: 8 indirect buffer size: 4096 RAS size: 64
Heartbeat CPU 0 instructions: 10000001 cycles: 2700909 heartbeat IPC: 3.70246 cumulative IPC: 3.70246 (Simulation time: 0 hr 0 min 41 sec) 
Heartbeat CPU 0 instructions: 20000000 cycles: 5391224 heartbeat IPC: 3.71704 cumulative IPC: 3.70973 (Simulation time: 0 hr 1 min 20 sec) 
Heartbeat CPU 0 instructions: 30000001 cycles: 8245188 heartbeat IPC: 3.5039 cumulative IPC: 3.63849 (Simulation time: 0 hr 2 min 2 sec) 
Heartbeat CPU 0 instructions: 40000002 cycles: 10991149 heartbeat IPC: 3.64171 cumulative IPC: 3.63929 (Simulation time: 0 hr 2 min 44 sec) 

Warmup complete CPU 0 instructions: 40000002 cycles: 10991149 (Simulation time: 0 hr 2 min 44 sec) 

Heartbeat CPU 0 instructions: 50000002 cycles: 15848708 heartbeat IPC: 2.05865 cumulative IPC: 2.05865 (Simulation time: 0 hr 3 min 45 sec) 
Heartbeat CPU 0 instructions: 60000004 cycles: 22290382 heartbeat IPC: 1.55239 cumulative IPC: 1.77003 (Simulation time: 0 hr 5 min 17 sec) 
Heartbeat CPU 0 instructions: 70000002 cycles: 27948427 heartbeat IPC: 1.76739 cumulative IPC: 1.76915 (Simulation time: 0 hr 6 min 42 sec) 
Heartbeat CPU 0 instructions: 80000004 cycles: 33050202 heartbeat IPC: 1.9601 cumulative IPC: 1.81331 (Simulation time: 0 hr 8 min 12 sec) 
Heartbeat CPU 0 instructions: 90000001 cycles: 38544582 heartbeat IPC: 1.82004 cumulative IPC: 1.81466 (Simulation time: 0 hr 9 min 50 sec) 
Heartbeat CPU 0 instructions: 100000001 cycles: 44274701 heartbeat IPC: 1.74516 cumulative IPC: 1.80269 (Simulation time: 0 hr 11 min 25 sec) 
Heartbeat CPU 0 instructions: 110000001 cycles: 48089742 heartbeat IPC: 2.6212 cumulative IPC: 1.88686 (Simulation time: 0 hr 12 min 39 sec) 
Heartbeat CPU 0 instructions: 120000002 cycles: 53315390 heartbeat IPC: 1.91364 cumulative IPC: 1.89017 (Simulation time: 0 hr 14 min 7 sec) 
Heartbeat CPU 0 instructions: 130000000 cycles: 58719141 heartbeat IPC: 1.85057 cumulative IPC: 1.88569 (Simulation time: 0 hr 15 min 40 sec) 
Heartbeat CPU 0 instructions: 140000000 cycles: 64005970 heartbeat IPC: 1.89149 cumulative IPC: 1.88626 (Simulation time: 0 hr 17 min 3 sec) 
Finished CPU 0 instructions: 100000003 cycles: 53014822 cumulative IPC: 1.88626 (Simulation time: 0 hr 17 min 3 sec) 

ChampSim completed all CPUs

Region of Interest Statistics

CPU 0 cumulative IPC: 1.88626 instructions: 100000003 cycles: 53014822
cpu0_DTLB TOTAL     ACCESS:   24505295  HIT:   24448439  MISS:      56856
cpu0_DTLB LOAD      ACCESS:   13014153  HIT:   12995284  MISS:      18869
cpu0_DTLB RFO       ACCESS:   11491142  HIT:   11453155  MISS:      37987
cpu0_DTLB PREFETCH  ACCESS:          0  HIT:          0  MISS:          0
cpu0_DTLB WRITEBACK ACCESS:          0  HIT:          0  MISS:          0
cpu0_DTLB TRANSLATION ACCESS:          0  HIT:          0  MISS:          0
cpu0_DTLB PREFETCH  REQUESTED:          0  ISSUED:          0  USEFUL:          0  USELESS:          0
cpu0_DTLB AVERAGE MISS LATENCY: 32.3597 cycles
cpu0_DTLB MSHR FULL EVENTS: 26746 MSHR MERGE EVENTS: 151923
cpu0_ITLB TOTAL     ACCESS:    1668206  HIT:    1668206  MISS:          0
cpu0_ITLB LOAD      ACCESS:    1668206  HIT:    1668206  MISS:          0
cpu0_ITLB RFO       ACCESS:          0  HIT:          0  MISS:          0
cpu0_ITLB PREFETCH  ACCESS:          0  HIT:          0  MISS:          0
cpu0_ITLB WRITEBACK ACCESS:          0  HIT:          0  MISS:          0
cpu0_ITLB TRANSLATION ACCESS:          0  HIT:          0  MISS:          0
cpu0_ITLB PREFETCH  REQUESTED:          0  ISSUED:          0  USEFUL:          0  USELESS:          0
cpu0_ITLB AVERAGE MISS LATENCY: -nan cycles
cpu0_ITLB MSHR FULL EVENTS: 0 MSHR MERGE EVENTS: 0
cpu0_L1I TOTAL     ACCESS:        517  HIT:        517  MISS:          0
cpu0_L1I LOAD      ACCESS:        517  HIT:        517  MISS:          0
cpu0_L1I RFO       ACCESS:          0  HIT:          0  MISS:          0
cpu0_L1I PREFETCH  ACCESS:          0  HIT:          0  MISS:          0
cpu0_L1I WRITEBACK ACCESS:          0  HIT:          0  MISS:          0
cpu0_L1I TRANSLATION ACCESS:          0  HIT:          0  MISS:          0
cpu0_L1I PREFETCH  REQUESTED:          0  ISSUED:          0  USEFUL:          0  USELESS:          0
cpu0_L1I AVERAGE MISS LATENCY: -nan cycles
cpu0_L1I MSHR FULL EVENTS: 0 MSHR MERGE EVENTS: 0
cpu0_STLB TOTAL     ACCESS:      56856  HIT:      43152  MISS:      13704
cpu0_STLB LOAD      ACCESS:      18869  HIT:      12317  MISS:       6552
cpu0_STLB RFO       ACCESS:      37987  HIT:      30835  MISS:       7152
cpu0_STLB PREFETCH  ACCESS:          0  HIT:          0  MISS:          0
cpu0_STLB WRITEBACK ACCESS:          0  HIT:          0  MISS:          0
cpu0_STLB TRANSLATION ACCESS:          0  HIT:          0  MISS:          0
cpu0_STLB PREFETCH  REQUESTED:          0  ISSUED:          0  USEFUL:          0  USELESS:          0
cpu0_STLB AVERAGE MISS LATENCY: 98.0668 cycles
cpu0_STLB MSHR FULL EVENTS: 0 MSHR MERGE EVENTS: 0
cpu0_L1D TOTAL     ACCESS:   24873586  HIT:   22349975  MISS:    2523611
cpu0_L1D LOAD      ACCESS:    8508586  HIT:    7109477  MISS:    1399109
cpu0_L1D RFO       ACCESS:   16353155  HIT:   15229985  MISS:    1123170
cpu0_L1D PREFETCH  ACCESS:          0  HIT:          0  MISS:          0
cpu0_L1D WRITEBACK ACCESS:          0  HIT:          0  MISS:          0
cpu0_L1D TRANSLATION ACCESS:      11845  HIT:      10513  MISS:       1332
cpu0_L1D PREFETCH  REQUESTED:          0  ISSUED:          0  USEFUL:          0  USELESS:          0
cpu0_L1D AVERAGE MISS LATENCY: 171.293 cycles
cpu0_L1D MSHR FULL EVENTS: 21299161 MSHR MERGE EVENTS: 5677756
cpu0_L2C TOTAL     ACCESS:    3648977  HIT:    1582371  MISS:    2066577
cpu0_L2C LOAD      ACCESS:    1399090  HIT:     392323  MISS:    1006767
cpu0_L2C RFO       ACCESS:    1123050  HIT:      63303  MISS:    1059747
cpu0_L2C PREFETCH  ACCESS:          0  HIT:          0  MISS:          0
cpu0_L2C WRITEBACK ACCESS:    1125505  HIT:    1125476  MISS:         29
cpu0_L2C TRANSLATION ACCESS:       1332  HIT:       1269  MISS:         63
cpu0_L2C PREFETCH  REQUESTED:          0  ISSUED:          0  USEFUL:          0  USELESS:          0
cpu0_L2C AVERAGE MISS LATENCY: 203.293 cycles
cpu0_L2C MSHR FULL EVENTS: 558256 MSHR MERGE EVENTS: 0
LLC TOTAL     ACCESS:    4133176  HIT:    1499084  MISS:     567493
LLC LOAD      ACCESS:    1006760  HIT:     743616  MISS:     263144
LLC RFO       ACCESS:    1059747  HIT:     755404  MISS:     304343
LLC PREFETCH  ACCESS:          0  HIT:          0  MISS:          0
LLC WRITEBACK ACCESS:    2066606  HIT:          7  MISS:    2066599
LLC TRANSLATION ACCESS:         63  HIT:         57  MISS:          6
LLC PREFETCH  REQUESTED:          0  ISSUED:          0  USEFUL:          0  USELESS:          0
LLC AVERAGE MISS LATENCY: 629.802 cycles
LLC MSHR FULL EVENTS: 0 MSHR MERGE EVENTS: 0
blocks bypassed = 0
blocks filled to llc = 0

DRAM Statistics
 CHANNEL 0
 RQ ROW_BUFFER_HIT:     138526  ROW_BUFFER_MISS:     428710
 DBUS AVG_CONGESTED_CYCLE:    3.96366
 WQ ROW_BUFFER_HIT:      36154  ROW_BUFFER_MISS:     286328  FULL:     975231


CPU 0 Branch Prediction Accuracy: 98.2862% MPKI: 1.74721 Average ROB Occupancy at Mispredict: 174.467
Branch type MPKI
BRANCH_DIRECT_JUMP: 1e-05
BRANCH_INDIRECT: 0
BRANCH_CONDITIONAL: 1.74717
BRANCH_DIRECT_CALL: 1e-05
BRANCH_INDIRECT_CALL: 0
BRANCH_RETURN: 2e-05

