
*** ChampSim Multicore Out-of-Order Simulator ***

Warmup Instructions: 40000000
Simulation Instructions: 100000000
Number of CPUs: 1
Off-chip DRAM Size: 4 GiB Channels: 1 Width: 64-bit Data Rate: 3200 MT/s

VirtualMemory physical capacity: 4293914624 num_ppages: 1048319
VirtualMemory page size: 4096 log2_page_size: 12

CPU 0 runs ../../../../ICS/traces//BFSCC_22000M.champsim.xz
CPU 0 Bimodal branch predictor
Basic BTB sets: 1024 ways: 8 indirect buffer size: 4096 RAS size: 64
Heartbeat CPU 0 instructions: 10000004 cycles: 2911402 heartbeat IPC: 3.43477 cumulative IPC: 3.43477 (Simulation time: 0 hr 0 min 48 sec) 
Heartbeat CPU 0 instructions: 20000000 cycles: 5861154 heartbeat IPC: 3.39011 cumulative IPC: 3.4123 (Simulation time: 0 hr 1 min 30 sec) 
Heartbeat CPU 0 instructions: 30000000 cycles: 8722341 heartbeat IPC: 3.49505 cumulative IPC: 3.43944 (Simulation time: 0 hr 2 min 15 sec) 
Heartbeat CPU 0 instructions: 40000000 cycles: 11531423 heartbeat IPC: 3.55988 cumulative IPC: 3.46878 (Simulation time: 0 hr 3 min 0 sec) 

Warmup complete CPU 0 instructions: 40000001 cycles: 11531424 (Simulation time: 0 hr 3 min 0 sec) 

Heartbeat CPU 0 instructions: 50000003 cycles: 32281411 heartbeat IPC: 0.481928 cumulative IPC: 0.481928 (Simulation time: 0 hr 4 min 19 sec) 
Heartbeat CPU 0 instructions: 60000001 cycles: 52824803 heartbeat IPC: 0.486774 cumulative IPC: 0.484339 (Simulation time: 0 hr 5 min 33 sec) 
Heartbeat CPU 0 instructions: 70000003 cycles: 72853134 heartbeat IPC: 0.499293 cumulative IPC: 0.489223 (Simulation time: 0 hr 6 min 51 sec) 
Heartbeat CPU 0 instructions: 80000003 cycles: 86755382 heartbeat IPC: 0.719308 cumulative IPC: 0.531745 (Simulation time: 0 hr 8 min 25 sec) 
Heartbeat CPU 0 instructions: 90000001 cycles: 90042520 heartbeat IPC: 3.04216 cumulative IPC: 0.636853 (Simulation time: 0 hr 9 min 28 sec) 
Heartbeat CPU 0 instructions: 100000003 cycles: 93761502 heartbeat IPC: 2.68891 cumulative IPC: 0.72966 (Simulation time: 0 hr 10 min 30 sec) 
Heartbeat CPU 0 instructions: 110000002 cycles: 96297368 heartbeat IPC: 3.94343 cumulative IPC: 0.825803 (Simulation time: 0 hr 11 min 12 sec) 
Heartbeat CPU 0 instructions: 120000002 cycles: 100923534 heartbeat IPC: 2.16162 cumulative IPC: 0.894934 (Simulation time: 0 hr 11 min 53 sec) 
Heartbeat CPU 0 instructions: 130000000 cycles: 109718011 heartbeat IPC: 1.13708 cumulative IPC: 0.916622 (Simulation time: 0 hr 12 min 35 sec) 
Heartbeat CPU 0 instructions: 140000001 cycles: 115583321 heartbeat IPC: 1.70494 cumulative IPC: 0.961059 (Simulation time: 0 hr 13 min 15 sec) 
Finished CPU 0 instructions: 100000000 cycles: 104051897 cumulative IPC: 0.961059 (Simulation time: 0 hr 13 min 15 sec) 

ChampSim completed all CPUs

Region of Interest Statistics

CPU 0 cumulative IPC: 0.961059 instructions: 100000000 cycles: 104051897
cpu0_DTLB TOTAL     ACCESS:   16122560  HIT:   15361900  MISS:     760660
cpu0_DTLB LOAD      ACCESS:   14538017  HIT:   13778439  MISS:     759578
cpu0_DTLB RFO       ACCESS:    1584543  HIT:    1583461  MISS:       1082
cpu0_DTLB PREFETCH  ACCESS:          0  HIT:          0  MISS:          0
cpu0_DTLB WRITEBACK ACCESS:          0  HIT:          0  MISS:          0
cpu0_DTLB TRANSLATION ACCESS:          0  HIT:          0  MISS:          0
cpu0_DTLB PREFETCH  REQUESTED:          0  ISSUED:          0  USEFUL:          0  USELESS:          0
cpu0_DTLB AVERAGE MISS LATENCY: 11.907 cycles
cpu0_DTLB MSHR FULL EVENTS: 3 MSHR MERGE EVENTS: 143092
cpu0_ITLB TOTAL     ACCESS:    8712940  HIT:    8712931  MISS:          9
cpu0_ITLB LOAD      ACCESS:    8712940  HIT:    8712931  MISS:          9
cpu0_ITLB RFO       ACCESS:          0  HIT:          0  MISS:          0
cpu0_ITLB PREFETCH  ACCESS:          0  HIT:          0  MISS:          0
cpu0_ITLB WRITEBACK ACCESS:          0  HIT:          0  MISS:          0
cpu0_ITLB TRANSLATION ACCESS:          0  HIT:          0  MISS:          0
cpu0_ITLB PREFETCH  REQUESTED:          0  ISSUED:          0  USEFUL:          0  USELESS:          0
cpu0_ITLB AVERAGE MISS LATENCY: 265.556 cycles
cpu0_ITLB MSHR FULL EVENTS: 0 MSHR MERGE EVENTS: 0
cpu0_L1I TOTAL     ACCESS:        269  HIT:        154  MISS:        115
cpu0_L1I LOAD      ACCESS:        269  HIT:        154  MISS:        115
cpu0_L1I RFO       ACCESS:          0  HIT:          0  MISS:          0
cpu0_L1I PREFETCH  ACCESS:          0  HIT:          0  MISS:          0
cpu0_L1I WRITEBACK ACCESS:          0  HIT:          0  MISS:          0
cpu0_L1I TRANSLATION ACCESS:          0  HIT:          0  MISS:          0
cpu0_L1I PREFETCH  REQUESTED:          0  ISSUED:          0  USEFUL:          0  USELESS:          0
cpu0_L1I AVERAGE MISS LATENCY: 176.843 cycles
cpu0_L1I MSHR FULL EVENTS: 0 MSHR MERGE EVENTS: 1
cpu0_STLB TOTAL     ACCESS:     760669  HIT:     749344  MISS:      11325
cpu0_STLB LOAD      ACCESS:     759587  HIT:     748906  MISS:      10681
cpu0_STLB RFO       ACCESS:       1082  HIT:        438  MISS:        644
cpu0_STLB PREFETCH  ACCESS:          0  HIT:          0  MISS:          0
cpu0_STLB WRITEBACK ACCESS:          0  HIT:          0  MISS:          0
cpu0_STLB TRANSLATION ACCESS:          0  HIT:          0  MISS:          0
cpu0_STLB PREFETCH  REQUESTED:          0  ISSUED:          0  USEFUL:          0  USELESS:          0
cpu0_STLB AVERAGE MISS LATENCY: 195.838 cycles
cpu0_STLB MSHR FULL EVENTS: 0 MSHR MERGE EVENTS: 0
cpu0_L1D TOTAL     ACCESS:    9494502  HIT:    7766871  MISS:    1727631
cpu0_L1D LOAD      ACCESS:    8080212  HIT:    6407869  MISS:    1672343
cpu0_L1D RFO       ACCESS:    1402965  HIT:    1350029  MISS:      52936
cpu0_L1D PREFETCH  ACCESS:          0  HIT:          0  MISS:          0
cpu0_L1D WRITEBACK ACCESS:          0  HIT:          0  MISS:          0
cpu0_L1D TRANSLATION ACCESS:      11325  HIT:       8973  MISS:       2352
cpu0_L1D PREFETCH  REQUESTED:          0  ISSUED:          0  USEFUL:          0  USELESS:          0
cpu0_L1D AVERAGE MISS LATENCY: 99.4255 cycles
cpu0_L1D MSHR FULL EVENTS: 12794 MSHR MERGE EVENTS: 2623399
cpu0_L2C TOTAL     ACCESS:    1796842  HIT:     257045  MISS:    1539797
cpu0_L2C LOAD      ACCESS:    1672458  HIT:     185594  MISS:    1486864
cpu0_L2C RFO       ACCESS:      52936  HIT:         26  MISS:      52910
cpu0_L2C PREFETCH  ACCESS:          0  HIT:          0  MISS:          0
cpu0_L2C WRITEBACK ACCESS:      69096  HIT:      69096  MISS:          0
cpu0_L2C TRANSLATION ACCESS:       2352  HIT:       2329  MISS:         23
cpu0_L2C PREFETCH  REQUESTED:          0  ISSUED:          0  USEFUL:          0  USELESS:          0
cpu0_L2C AVERAGE MISS LATENCY: 100.212 cycles
cpu0_L2C MSHR FULL EVENTS: 0 MSHR MERGE EVENTS: 0
LLC TOTAL     ACCESS:    3079593  HIT:     750066  MISS:     789731
LLC LOAD      ACCESS:    1486863  HIT:     735106  MISS:     751757
LLC RFO       ACCESS:      52910  HIT:      14943  MISS:      37967
LLC PREFETCH  ACCESS:          0  HIT:          0  MISS:          0
LLC WRITEBACK ACCESS:    1539797  HIT:          1  MISS:    1539796
LLC TRANSLATION ACCESS:         23  HIT:         16  MISS:          7
LLC PREFETCH  REQUESTED:          0  ISSUED:          0  USEFUL:          0  USELESS:          0
LLC AVERAGE MISS LATENCY: 155.441 cycles
LLC MSHR FULL EVENTS: 0 MSHR MERGE EVENTS: 0
blocks bypassed = 0
blocks filled to llc = 0

DRAM Statistics
 CHANNEL 0
 RQ ROW_BUFFER_HIT:     171523  ROW_BUFFER_MISS:     618208
 DBUS AVG_CONGESTED_CYCLE:    3.67057
 WQ ROW_BUFFER_HIT:      21669  ROW_BUFFER_MISS:      12330  FULL:          0


CPU 0 Branch Prediction Accuracy: 94.0529% MPKI: 14.8888 Average ROB Occupancy at Mispredict: 64.7665
Branch type MPKI
BRANCH_DIRECT_JUMP: 0.00024
BRANCH_INDIRECT: 0
BRANCH_CONDITIONAL: 14.8882
BRANCH_DIRECT_CALL: 0.00017
BRANCH_INDIRECT_CALL: 0
BRANCH_RETURN: 0.00017

