
*** ChampSim Multicore Out-of-Order Simulator ***

Warmup Instructions: 40000000
Simulation Instructions: 100000000
Number of CPUs: 1
Off-chip DRAM Size: 4 GiB Channels: 1 Width: 64-bit Data Rate: 3200 MT/s

VirtualMemory physical capacity: 4293914624 num_ppages: 1048319
VirtualMemory page size: 4096 log2_page_size: 12

CPU 0 runs ../../../../ICS/traces//Radii_36000M.champsim.xz
CPU 0 Bimodal branch predictor
Basic BTB sets: 1024 ways: 8 indirect buffer size: 4096 RAS size: 64
Heartbeat CPU 0 instructions: 10000000 cycles: 3369148 heartbeat IPC: 2.96811 cumulative IPC: 2.96811 (Simulation time: 0 hr 1 min 16 sec) 
Heartbeat CPU 0 instructions: 20000002 cycles: 6754470 heartbeat IPC: 2.95393 cumulative IPC: 2.961 (Simulation time: 0 hr 2 min 32 sec) 
Heartbeat CPU 0 instructions: 30000000 cycles: 10167992 heartbeat IPC: 2.92952 cumulative IPC: 2.95044 (Simulation time: 0 hr 3 min 50 sec) 
Heartbeat CPU 0 instructions: 40000000 cycles: 13584254 heartbeat IPC: 2.92718 cumulative IPC: 2.94459 (Simulation time: 0 hr 4 min 49 sec) 

Warmup complete CPU 0 instructions: 40000002 cycles: 13584255 (Simulation time: 0 hr 4 min 49 sec) 

Heartbeat CPU 0 instructions: 50000003 cycles: 51991140 heartbeat IPC: 0.26037 cumulative IPC: 0.26037 (Simulation time: 0 hr 6 min 42 sec) 
Heartbeat CPU 0 instructions: 60000003 cycles: 88008354 heartbeat IPC: 0.277645 cumulative IPC: 0.26873 (Simulation time: 0 hr 8 min 53 sec) 
Heartbeat CPU 0 instructions: 70000003 cycles: 129664499 heartbeat IPC: 0.240061 cumulative IPC: 0.258442 (Simulation time: 0 hr 11 min 8 sec) 
Heartbeat CPU 0 instructions: 80000004 cycles: 175391358 heartbeat IPC: 0.21869 cumulative IPC: 0.247208 (Simulation time: 0 hr 12 min 35 sec) 
Heartbeat CPU 0 instructions: 90000003 cycles: 222507719 heartbeat IPC: 0.21224 cumulative IPC: 0.239322 (Simulation time: 0 hr 14 min 22 sec) 
Heartbeat CPU 0 instructions: 100000004 cycles: 268850869 heartbeat IPC: 0.215782 cumulative IPC: 0.235048 (Simulation time: 0 hr 16 min 9 sec) 
Heartbeat CPU 0 instructions: 110000001 cycles: 315573867 heartbeat IPC: 0.214027 cumulative IPC: 0.231796 (Simulation time: 0 hr 17 min 35 sec) 
Heartbeat CPU 0 instructions: 120000002 cycles: 360753997 heartbeat IPC: 0.221336 cumulative IPC: 0.230435 (Simulation time: 0 hr 18 min 56 sec) 
Heartbeat CPU 0 instructions: 130000001 cycles: 404051162 heartbeat IPC: 0.230962 cumulative IPC: 0.230493 (Simulation time: 0 hr 20 min 25 sec) 
Heartbeat CPU 0 instructions: 140000002 cycles: 416927950 heartbeat IPC: 0.776591 cumulative IPC: 0.247928 (Simulation time: 0 hr 21 min 15 sec) 
Finished CPU 0 instructions: 100000000 cycles: 403343695 cumulative IPC: 0.247928 (Simulation time: 0 hr 21 min 15 sec) 

ChampSim completed all CPUs

Region of Interest Statistics

CPU 0 cumulative IPC: 0.247928 instructions: 100000000 cycles: 403343695
cpu0_DTLB TOTAL     ACCESS:   27857099  HIT:   25148467  MISS:    2708632
cpu0_DTLB LOAD      ACCESS:   23345918  HIT:   20658210  MISS:    2687708
cpu0_DTLB RFO       ACCESS:    4511181  HIT:    4490257  MISS:      20924
cpu0_DTLB PREFETCH  ACCESS:          0  HIT:          0  MISS:          0
cpu0_DTLB WRITEBACK ACCESS:          0  HIT:          0  MISS:          0
cpu0_DTLB TRANSLATION ACCESS:          0  HIT:          0  MISS:          0
cpu0_DTLB PREFETCH  REQUESTED:          0  ISSUED:          0  USEFUL:          0  USELESS:          0
cpu0_DTLB AVERAGE MISS LATENCY: 12.1661 cycles
cpu0_DTLB MSHR FULL EVENTS: 26970 MSHR MERGE EVENTS: 118890
cpu0_ITLB TOTAL     ACCESS:   10151178  HIT:   10151172  MISS:          6
cpu0_ITLB LOAD      ACCESS:   10151178  HIT:   10151172  MISS:          6
cpu0_ITLB RFO       ACCESS:          0  HIT:          0  MISS:          0
cpu0_ITLB PREFETCH  ACCESS:          0  HIT:          0  MISS:          0
cpu0_ITLB WRITEBACK ACCESS:          0  HIT:          0  MISS:          0
cpu0_ITLB TRANSLATION ACCESS:          0  HIT:          0  MISS:          0
cpu0_ITLB PREFETCH  REQUESTED:          0  ISSUED:          0  USEFUL:          0  USELESS:          0
cpu0_ITLB AVERAGE MISS LATENCY: 280 cycles
cpu0_ITLB MSHR FULL EVENTS: 0 MSHR MERGE EVENTS: 0
cpu0_L1I TOTAL     ACCESS:        106  HIT:         55  MISS:         51
cpu0_L1I LOAD      ACCESS:        106  HIT:         55  MISS:         51
cpu0_L1I RFO       ACCESS:          0  HIT:          0  MISS:          0
cpu0_L1I PREFETCH  ACCESS:          0  HIT:          0  MISS:          0
cpu0_L1I WRITEBACK ACCESS:          0  HIT:          0  MISS:          0
cpu0_L1I TRANSLATION ACCESS:          0  HIT:          0  MISS:          0
cpu0_L1I PREFETCH  REQUESTED:          0  ISSUED:          0  USEFUL:          0  USELESS:          0
cpu0_L1I AVERAGE MISS LATENCY: 183.137 cycles
cpu0_L1I MSHR FULL EVENTS: 0 MSHR MERGE EVENTS: 0
cpu0_STLB TOTAL     ACCESS:    2708638  HIT:    2322734  MISS:     385904
cpu0_STLB LOAD      ACCESS:    2687714  HIT:    2305769  MISS:     381945
cpu0_STLB RFO       ACCESS:      20924  HIT:      16965  MISS:       3959
cpu0_STLB PREFETCH  ACCESS:          0  HIT:          0  MISS:          0
cpu0_STLB WRITEBACK ACCESS:          0  HIT:          0  MISS:          0
cpu0_STLB TRANSLATION ACCESS:          0  HIT:          0  MISS:          0
cpu0_STLB PREFETCH  REQUESTED:          0  ISSUED:          0  USEFUL:          0  USELESS:          0
cpu0_STLB AVERAGE MISS LATENCY: 22.5395 cycles
cpu0_STLB MSHR FULL EVENTS: 0 MSHR MERGE EVENTS: 0
cpu0_L1D TOTAL     ACCESS:   26324488  HIT:   21782586  MISS:    4541902
cpu0_L1D LOAD      ACCESS:   21064855  HIT:   16561512  MISS:    4503343
cpu0_L1D RFO       ACCESS:    4884703  HIT:    4856697  MISS:      28006
cpu0_L1D PREFETCH  ACCESS:          0  HIT:          0  MISS:          0
cpu0_L1D WRITEBACK ACCESS:          0  HIT:          0  MISS:          0
cpu0_L1D TRANSLATION ACCESS:     374930  HIT:     364377  MISS:      10553
cpu0_L1D PREFETCH  REQUESTED:          0  ISSUED:          0  USEFUL:          0  USELESS:          0
cpu0_L1D AVERAGE MISS LATENCY: 108.678 cycles
cpu0_L1D MSHR FULL EVENTS: 142401 MSHR MERGE EVENTS: 1265871
cpu0_L2C TOTAL     ACCESS:    4828167  HIT:     896416  MISS:    3931742
cpu0_L2C LOAD      ACCESS:    4503394  HIT:     599898  MISS:    3903496
cpu0_L2C RFO       ACCESS:      28006  HIT:         11  MISS:      27995
cpu0_L2C PREFETCH  ACCESS:          0  HIT:          0  MISS:          0
cpu0_L2C WRITEBACK ACCESS:     286214  HIT:     286205  MISS:          9
cpu0_L2C TRANSLATION ACCESS:      10553  HIT:      10302  MISS:        251
cpu0_L2C PREFETCH  REQUESTED:          0  ISSUED:          0  USEFUL:          0  USELESS:          0
cpu0_L2C AVERAGE MISS LATENCY: 113.754 cycles
cpu0_L2C MSHR FULL EVENTS: 0 MSHR MERGE EVENTS: 0
LLC TOTAL     ACCESS:    7863489  HIT:    1745283  MISS:    2186459
LLC LOAD      ACCESS:    3903493  HIT:    1745054  MISS:    2158439
LLC RFO       ACCESS:      27995  HIT:          0  MISS:      27995
LLC PREFETCH  ACCESS:          0  HIT:          0  MISS:          0
LLC WRITEBACK ACCESS:    3931750  HIT:          3  MISS:    3931747
LLC TRANSLATION ACCESS:        251  HIT:        226  MISS:         25
LLC PREFETCH  REQUESTED:          0  ISSUED:          0  USEFUL:          0  USELESS:          0
LLC AVERAGE MISS LATENCY: 167.791 cycles
LLC MSHR FULL EVENTS: 0 MSHR MERGE EVENTS: 0
blocks bypassed = 0
blocks filled to llc = 0

DRAM Statistics
 CHANNEL 0
 RQ ROW_BUFFER_HIT:     102250  ROW_BUFFER_MISS:    2084209
 DBUS AVG_CONGESTED_CYCLE:    3.66644
 WQ ROW_BUFFER_HIT:     186993  ROW_BUFFER_MISS:      99455  FULL:          0


CPU 0 Branch Prediction Accuracy: 85.1756% MPKI: 36.0741 Average ROB Occupancy at Mispredict: 23.9038
Branch type MPKI
BRANCH_DIRECT_JUMP: 9e-05
BRANCH_INDIRECT: 0
BRANCH_CONDITIONAL: 36.0739
BRANCH_DIRECT_CALL: 7e-05
BRANCH_INDIRECT_CALL: 0
BRANCH_RETURN: 6e-05

