
*** ChampSim Multicore Out-of-Order Simulator ***

Warmup Instructions: 40000000
Simulation Instructions: 100000000
Number of CPUs: 1
Off-chip DRAM Size: 4 GiB Channels: 1 Width: 64-bit Data Rate: 3200 MT/s

VirtualMemory physical capacity: 4293914624 num_ppages: 1048319
VirtualMemory page size: 4096 log2_page_size: 12

CPU 0 runs ../../../../ICS/traces//MIS_21250M.champsim.xz
CPU 0 Bimodal branch predictor
Basic BTB sets: 1024 ways: 8 indirect buffer size: 4096 RAS size: 64
Heartbeat CPU 0 instructions: 10000002 cycles: 2941290 heartbeat IPC: 3.39987 cumulative IPC: 3.39987 (Simulation time: 0 hr 0 min 53 sec) 
Heartbeat CPU 0 instructions: 20000002 cycles: 5882462 heartbeat IPC: 3.40001 cumulative IPC: 3.39994 (Simulation time: 0 hr 1 min 46 sec) 
Heartbeat CPU 0 instructions: 30000000 cycles: 8823636 heartbeat IPC: 3.4 cumulative IPC: 3.39996 (Simulation time: 0 hr 2 min 40 sec) 
Heartbeat CPU 0 instructions: 40000000 cycles: 11764812 heartbeat IPC: 3.4 cumulative IPC: 3.39997 (Simulation time: 0 hr 3 min 35 sec) 

Warmup complete CPU 0 instructions: 40000005 cycles: 11764813 (Simulation time: 0 hr 3 min 35 sec) 

Heartbeat CPU 0 instructions: 50000001 cycles: 80106332 heartbeat IPC: 0.146324 cumulative IPC: 0.146324 (Simulation time: 0 hr 12 min 20 sec) 
Heartbeat CPU 0 instructions: 60000003 cycles: 91488028 heartbeat IPC: 0.878604 cumulative IPC: 0.250868 (Simulation time: 0 hr 13 min 43 sec) 
Heartbeat CPU 0 instructions: 70000002 cycles: 99114235 heartbeat IPC: 1.31127 cumulative IPC: 0.343448 (Simulation time: 0 hr 15 min 5 sec) 
Heartbeat CPU 0 instructions: 80000000 cycles: 107080343 heartbeat IPC: 1.25532 cumulative IPC: 0.419659 (Simulation time: 0 hr 16 min 23 sec) 
Heartbeat CPU 0 instructions: 90000003 cycles: 115644112 heartbeat IPC: 1.16771 cumulative IPC: 0.481328 (Simulation time: 0 hr 17 min 35 sec) 
Heartbeat CPU 0 instructions: 100000001 cycles: 124761733 heartbeat IPC: 1.09678 cumulative IPC: 0.530988 (Simulation time: 0 hr 19 min 0 sec) 
Heartbeat CPU 0 instructions: 110000002 cycles: 135434275 heartbeat IPC: 0.936984 cumulative IPC: 0.566025 (Simulation time: 0 hr 20 min 24 sec) 
Heartbeat CPU 0 instructions: 120000001 cycles: 149431608 heartbeat IPC: 0.714422 cumulative IPC: 0.581113 (Simulation time: 0 hr 21 min 12 sec) 
Heartbeat CPU 0 instructions: 130000000 cycles: 162064286 heartbeat IPC: 0.791598 cumulative IPC: 0.598804 (Simulation time: 0 hr 21 min 55 sec) 
Heartbeat CPU 0 instructions: 140000001 cycles: 175579220 heartbeat IPC: 0.739922 cumulative IPC: 0.610447 (Simulation time: 0 hr 22 min 39 sec) 
Finished CPU 0 instructions: 100000000 cycles: 163814408 cumulative IPC: 0.610447 (Simulation time: 0 hr 22 min 39 sec) 

ChampSim completed all CPUs

Region of Interest Statistics

CPU 0 cumulative IPC: 0.610447 instructions: 100000000 cycles: 163814408
cpu0_DTLB TOTAL     ACCESS:   24495108  HIT:   24418041  MISS:      77067
cpu0_DTLB LOAD      ACCESS:   24272188  HIT:   24195767  MISS:      76421
cpu0_DTLB RFO       ACCESS:     222920  HIT:     222274  MISS:        646
cpu0_DTLB PREFETCH  ACCESS:          0  HIT:          0  MISS:          0
cpu0_DTLB WRITEBACK ACCESS:          0  HIT:          0  MISS:          0
cpu0_DTLB TRANSLATION ACCESS:          0  HIT:          0  MISS:          0
cpu0_DTLB PREFETCH  REQUESTED:          0  ISSUED:          0  USEFUL:          0  USELESS:          0
cpu0_DTLB AVERAGE MISS LATENCY: 43.7996 cycles
cpu0_DTLB MSHR FULL EVENTS: 0 MSHR MERGE EVENTS: 118879
cpu0_ITLB TOTAL     ACCESS:    6653787  HIT:    6653779  MISS:          8
cpu0_ITLB LOAD      ACCESS:    6653787  HIT:    6653779  MISS:          8
cpu0_ITLB RFO       ACCESS:          0  HIT:          0  MISS:          0
cpu0_ITLB PREFETCH  ACCESS:          0  HIT:          0  MISS:          0
cpu0_ITLB WRITEBACK ACCESS:          0  HIT:          0  MISS:          0
cpu0_ITLB TRANSLATION ACCESS:          0  HIT:          0  MISS:          0
cpu0_ITLB PREFETCH  REQUESTED:          0  ISSUED:          0  USEFUL:          0  USELESS:          0
cpu0_ITLB AVERAGE MISS LATENCY: 397.375 cycles
cpu0_ITLB MSHR FULL EVENTS: 0 MSHR MERGE EVENTS: 0
cpu0_L1I TOTAL     ACCESS:        198  HIT:        106  MISS:         92
cpu0_L1I LOAD      ACCESS:        198  HIT:        106  MISS:         92
cpu0_L1I RFO       ACCESS:          0  HIT:          0  MISS:          0
cpu0_L1I PREFETCH  ACCESS:          0  HIT:          0  MISS:          0
cpu0_L1I WRITEBACK ACCESS:          0  HIT:          0  MISS:          0
cpu0_L1I TRANSLATION ACCESS:          0  HIT:          0  MISS:          0
cpu0_L1I PREFETCH  REQUESTED:          0  ISSUED:          0  USEFUL:          0  USELESS:          0
cpu0_L1I AVERAGE MISS LATENCY: 183.87 cycles
cpu0_L1I MSHR FULL EVENTS: 0 MSHR MERGE EVENTS: 0
cpu0_STLB TOTAL     ACCESS:      77075  HIT:      62101  MISS:      14974
cpu0_STLB LOAD      ACCESS:      76429  HIT:      62101  MISS:      14328
cpu0_STLB RFO       ACCESS:        646  HIT:          0  MISS:        646
cpu0_STLB PREFETCH  ACCESS:          0  HIT:          0  MISS:          0
cpu0_STLB WRITEBACK ACCESS:          0  HIT:          0  MISS:          0
cpu0_STLB TRANSLATION ACCESS:          0  HIT:          0  MISS:          0
cpu0_STLB PREFETCH  REQUESTED:          0  ISSUED:          0  USEFUL:          0  USELESS:          0
cpu0_STLB AVERAGE MISS LATENCY: 180.292 cycles
cpu0_STLB MSHR FULL EVENTS: 0 MSHR MERGE EVENTS: 0
cpu0_L1D TOTAL     ACCESS:   16122621  HIT:   13824693  MISS:    2297928
cpu0_L1D LOAD      ACCESS:   16040979  HIT:   13787204  MISS:    2253775
cpu0_L1D RFO       ACCESS:      66666  HIT:      25450  MISS:      41216
cpu0_L1D PREFETCH  ACCESS:          0  HIT:          0  MISS:          0
cpu0_L1D WRITEBACK ACCESS:          0  HIT:          0  MISS:          0
cpu0_L1D TRANSLATION ACCESS:      14976  HIT:      12039  MISS:       2937
cpu0_L1D PREFETCH  REQUESTED:          0  ISSUED:          0  USEFUL:          0  USELESS:          0
cpu0_L1D AVERAGE MISS LATENCY: 97.1645 cycles
cpu0_L1D MSHR FULL EVENTS: 2742349 MSHR MERGE EVENTS: 2618985
cpu0_L2C TOTAL     ACCESS:    2339648  HIT:    1372025  MISS:     967622
cpu0_L2C LOAD      ACCESS:    2253867  HIT:    1327500  MISS:     926367
cpu0_L2C RFO       ACCESS:      41216  HIT:          0  MISS:      41216
cpu0_L2C PREFETCH  ACCESS:          0  HIT:          0  MISS:          0
cpu0_L2C WRITEBACK ACCESS:      41628  HIT:      41627  MISS:          1
cpu0_L2C TRANSLATION ACCESS:       2937  HIT:       2898  MISS:         39
cpu0_L2C PREFETCH  REQUESTED:          0  ISSUED:          0  USEFUL:          0  USELESS:          0
cpu0_L2C AVERAGE MISS LATENCY: 205.568 cycles
cpu0_L2C MSHR FULL EVENTS: 0 MSHR MERGE EVENTS: 0
LLC TOTAL     ACCESS:    1935248  HIT:      13416  MISS:     954207
LLC LOAD      ACCESS:     926368  HIT:      13404  MISS:     912964
LLC RFO       ACCESS:      41216  HIT:          0  MISS:      41216
LLC PREFETCH  ACCESS:          0  HIT:          0  MISS:          0
LLC WRITEBACK ACCESS:     967625  HIT:          0  MISS:     967625
LLC TRANSLATION ACCESS:         39  HIT:         12  MISS:         27
LLC PREFETCH  REQUESTED:          0  ISSUED:          0  USEFUL:          0  USELESS:          0
LLC AVERAGE MISS LATENCY: 188.162 cycles
LLC MSHR FULL EVENTS: 0 MSHR MERGE EVENTS: 0
blocks bypassed = 0
blocks filled to llc = 0

DRAM Statistics
 CHANNEL 0
 RQ ROW_BUFFER_HIT:     285555  ROW_BUFFER_MISS:     668652
 DBUS AVG_CONGESTED_CYCLE:    3.93933
 WQ ROW_BUFFER_HIT:      41615  ROW_BUFFER_MISS:      73520  FULL:          0


CPU 0 Branch Prediction Accuracy: 98.802% MPKI: 3.81062 Average ROB Occupancy at Mispredict: 153.751
Branch type MPKI
BRANCH_DIRECT_JUMP: 0.0002
BRANCH_INDIRECT: 0
BRANCH_CONDITIONAL: 3.81025
BRANCH_DIRECT_CALL: 9e-05
BRANCH_INDIRECT_CALL: 0
BRANCH_RETURN: 8e-05

