
*** ChampSim Multicore Out-of-Order Simulator ***

Warmup Instructions: 40000000
Simulation Instructions: 100000000
Number of CPUs: 1
Off-chip DRAM Size: 4 GiB Channels: 1 Width: 64-bit Data Rate: 3200 MT/s

VirtualMemory physical capacity: 4293914624 num_ppages: 1048319
VirtualMemory page size: 4096 log2_page_size: 12

CPU 0 runs ../../../../ICS/traces//pr-3.trace.gz
CPU 0 Bimodal branch predictor
Basic BTB sets: 1024 ways: 8 indirect buffer size: 4096 RAS size: 64
Heartbeat CPU 0 instructions: 10000001 cycles: 2727447 heartbeat IPC: 3.66643 cumulative IPC: 3.66643 (Simulation time: 0 hr 0 min 48 sec) 
Heartbeat CPU 0 instructions: 20000002 cycles: 6428155 heartbeat IPC: 2.70219 cumulative IPC: 3.11131 (Simulation time: 0 hr 2 min 8 sec) 
Heartbeat CPU 0 instructions: 30000002 cycles: 10307706 heartbeat IPC: 2.57762 cumulative IPC: 2.91044 (Simulation time: 0 hr 3 min 25 sec) 
Heartbeat CPU 0 instructions: 40000001 cycles: 14190006 heartbeat IPC: 2.57579 cumulative IPC: 2.81889 (Simulation time: 0 hr 4 min 45 sec) 

Warmup complete CPU 0 instructions: 40000001 cycles: 14190006 (Simulation time: 0 hr 4 min 45 sec) 

Heartbeat CPU 0 instructions: 50000001 cycles: 78428540 heartbeat IPC: 0.15567 cumulative IPC: 0.15567 (Simulation time: 0 hr 13 min 20 sec) 
Heartbeat CPU 0 instructions: 60000004 cycles: 142347258 heartbeat IPC: 0.156449 cumulative IPC: 0.156058 (Simulation time: 0 hr 20 min 55 sec) 
Heartbeat CPU 0 instructions: 70000002 cycles: 206527296 heartbeat IPC: 0.155812 cumulative IPC: 0.155976 (Simulation time: 0 hr 28 min 23 sec) 
Heartbeat CPU 0 instructions: 80000004 cycles: 270746619 heartbeat IPC: 0.155716 cumulative IPC: 0.155911 (Simulation time: 0 hr 35 min 38 sec) 
Heartbeat CPU 0 instructions: 90000001 cycles: 334794277 heartbeat IPC: 0.156134 cumulative IPC: 0.155956 (Simulation time: 0 hr 42 min 51 sec) 
Heartbeat CPU 0 instructions: 100000003 cycles: 399121893 heartbeat IPC: 0.155454 cumulative IPC: 0.155872 (Simulation time: 0 hr 50 min 6 sec) 
Heartbeat CPU 0 instructions: 110000004 cycles: 463304026 heartbeat IPC: 0.155807 cumulative IPC: 0.155862 (Simulation time: 0 hr 57 min 20 sec) 
Heartbeat CPU 0 instructions: 120000002 cycles: 527700596 heartbeat IPC: 0.155288 cumulative IPC: 0.15579 (Simulation time: 1 hr 4 min 35 sec) 
Heartbeat CPU 0 instructions: 130000001 cycles: 591711208 heartbeat IPC: 0.156224 cumulative IPC: 0.155838 (Simulation time: 1 hr 10 min 52 sec) 
Heartbeat CPU 0 instructions: 140000003 cycles: 655940103 heartbeat IPC: 0.155693 cumulative IPC: 0.155824 (Simulation time: 1 hr 16 min 43 sec) 
Finished CPU 0 instructions: 100000002 cycles: 641750097 cumulative IPC: 0.155824 (Simulation time: 1 hr 16 min 43 sec) 

ChampSim completed all CPUs

Region of Interest Statistics

CPU 0 cumulative IPC: 0.155824 instructions: 100000002 cycles: 641750097
cpu0_DTLB TOTAL     ACCESS:   39677399  HIT:   27619389  MISS:   12058010
cpu0_DTLB LOAD      ACCESS:   38493583  HIT:   26445805  MISS:   12047778
cpu0_DTLB RFO       ACCESS:    1183816  HIT:    1173584  MISS:      10232
cpu0_DTLB PREFETCH  ACCESS:          0  HIT:          0  MISS:          0
cpu0_DTLB WRITEBACK ACCESS:          0  HIT:          0  MISS:          0
cpu0_DTLB TRANSLATION ACCESS:          0  HIT:          0  MISS:          0
cpu0_DTLB PREFETCH  REQUESTED:          0  ISSUED:          0  USEFUL:          0  USELESS:          0
cpu0_DTLB AVERAGE MISS LATENCY: 9.31808 cycles
cpu0_DTLB MSHR FULL EVENTS: 0 MSHR MERGE EVENTS: 112897
cpu0_ITLB TOTAL     ACCESS:    2647427  HIT:    2647427  MISS:          0
cpu0_ITLB LOAD      ACCESS:    2647427  HIT:    2647427  MISS:          0
cpu0_ITLB RFO       ACCESS:          0  HIT:          0  MISS:          0
cpu0_ITLB PREFETCH  ACCESS:          0  HIT:          0  MISS:          0
cpu0_ITLB WRITEBACK ACCESS:          0  HIT:          0  MISS:          0
cpu0_ITLB TRANSLATION ACCESS:          0  HIT:          0  MISS:          0
cpu0_ITLB PREFETCH  REQUESTED:          0  ISSUED:          0  USEFUL:          0  USELESS:          0
cpu0_ITLB AVERAGE MISS LATENCY: -nan cycles
cpu0_ITLB MSHR FULL EVENTS: 0 MSHR MERGE EVENTS: 0
cpu0_STLB TOTAL     ACCESS:   12058010  HIT:   12038781  MISS:      19229
cpu0_STLB LOAD      ACCESS:   12047778  HIT:   12028549  MISS:      19229
cpu0_STLB RFO       ACCESS:      10232  HIT:      10232  MISS:          0
cpu0_STLB PREFETCH  ACCESS:          0  HIT:          0  MISS:          0
cpu0_STLB WRITEBACK ACCESS:          0  HIT:          0  MISS:          0
cpu0_STLB TRANSLATION ACCESS:          0  HIT:          0  MISS:          0
cpu0_STLB PREFETCH  REQUESTED:          0  ISSUED:          0  USEFUL:          0  USELESS:          0
cpu0_STLB AVERAGE MISS LATENCY: 200.456 cycles
cpu0_STLB MSHR FULL EVENTS: 0 MSHR MERGE EVENTS: 0
cpu0_L1D TOTAL     ACCESS:   36444355  HIT:   18237245  MISS:   18207110
cpu0_L1D LOAD      ACCESS:   35240083  HIT:   17050277  MISS:   18189806
cpu0_L1D RFO       ACCESS:    1185043  HIT:    1185043  MISS:          0
cpu0_L1D PREFETCH  ACCESS:          0  HIT:          0  MISS:          0
cpu0_L1D WRITEBACK ACCESS:          0  HIT:          0  MISS:          0
cpu0_L1D TRANSLATION ACCESS:      19229  HIT:       1925  MISS:      17304
cpu0_L1D PREFETCH  REQUESTED:          0  ISSUED:          0  USEFUL:          0  USELESS:          0
cpu0_L1D AVERAGE MISS LATENCY: 26.225 cycles
cpu0_L1D MSHR FULL EVENTS: 39 MSHR MERGE EVENTS: 3031874
cpu0_L2C TOTAL     ACCESS:   18251376  HIT:    8594944  MISS:    9656419
cpu0_L2C LOAD      ACCESS:   18189806  HIT:    8533936  MISS:    9655870
cpu0_L2C RFO       ACCESS:          0  HIT:          0  MISS:          0
cpu0_L2C PREFETCH  ACCESS:          0  HIT:          0  MISS:          0
cpu0_L2C WRITEBACK ACCESS:      44266  HIT:      44253  MISS:         13
cpu0_L2C TRANSLATION ACCESS:      17304  HIT:      16755  MISS:        549
cpu0_L2C PREFETCH  REQUESTED:          0  ISSUED:          0  USEFUL:          0  USELESS:          0
cpu0_L2C AVERAGE MISS LATENCY: 29.7068 cycles
cpu0_L2C MSHR FULL EVENTS: 0 MSHR MERGE EVENTS: 0
LLC TOTAL     ACCESS:   19312838  HIT:    8531063  MISS:    1125355
LLC LOAD      ACCESS:    9655858  HIT:    8530508  MISS:    1125350
LLC RFO       ACCESS:          0  HIT:          0  MISS:          0
LLC PREFETCH  ACCESS:          0  HIT:          0  MISS:          0
LLC WRITEBACK ACCESS:    9656431  HIT:         11  MISS:    9656420
LLC TRANSLATION ACCESS:        549  HIT:        544  MISS:          5
LLC PREFETCH  REQUESTED:          0  ISSUED:          0  USEFUL:          0  USELESS:          0
LLC AVERAGE MISS LATENCY: 75.7091 cycles
LLC MSHR FULL EVENTS: 0 MSHR MERGE EVENTS: 0
blocks bypassed = 0
blocks filled to llc = 0

DRAM Statistics
 CHANNEL 0
 RQ ROW_BUFFER_HIT:     973403  ROW_BUFFER_MISS:     151952
 DBUS AVG_CONGESTED_CYCLE:    2.27634
 WQ ROW_BUFFER_HIT:        217  ROW_BUFFER_MISS:       1124  FULL:          0


CPU 0 Branch Prediction Accuracy: 95.5965% MPKI: 8.40958 Average ROB Occupancy at Mispredict: 348.864
Branch type MPKI
BRANCH_DIRECT_JUMP: 0
BRANCH_INDIRECT: 0
BRANCH_CONDITIONAL: 8.40958
BRANCH_DIRECT_CALL: 0
BRANCH_INDIRECT_CALL: 0
BRANCH_RETURN: 0

