
*** ChampSim Multicore Out-of-Order Simulator ***

Warmup Instructions: 40000000
Simulation Instructions: 100000000
Number of CPUs: 1
Off-chip DRAM Size: 4 GiB Channels: 1 Width: 64-bit Data Rate: 3200 MT/s

VirtualMemory physical capacity: 4293914624 num_ppages: 1048319
VirtualMemory page size: 4096 log2_page_size: 12

CPU 0 runs ../../../../ICS/traces//sssp-10.trace.gz
CPU 0 Bimodal branch predictor
Basic BTB sets: 1024 ways: 8 indirect buffer size: 4096 RAS size: 64
Heartbeat CPU 0 instructions: 10000004 cycles: 2972405 heartbeat IPC: 3.36428 cumulative IPC: 3.36428 (Simulation time: 0 hr 1 min 18 sec) 
Heartbeat CPU 0 instructions: 20000004 cycles: 6341589 heartbeat IPC: 2.96808 cumulative IPC: 3.15378 (Simulation time: 0 hr 2 min 26 sec) 
Heartbeat CPU 0 instructions: 30000002 cycles: 9857438 heartbeat IPC: 2.84426 cumulative IPC: 3.04339 (Simulation time: 0 hr 3 min 46 sec) 
Heartbeat CPU 0 instructions: 40000003 cycles: 13458405 heartbeat IPC: 2.77703 cumulative IPC: 2.97212 (Simulation time: 0 hr 5 min 14 sec) 

Warmup complete CPU 0 instructions: 40000003 cycles: 13458405 (Simulation time: 0 hr 5 min 14 sec) 

Heartbeat CPU 0 instructions: 50000004 cycles: 28712796 heartbeat IPC: 0.655549 cumulative IPC: 0.655549 (Simulation time: 0 hr 6 min 48 sec) 
Heartbeat CPU 0 instructions: 60000002 cycles: 42949490 heartbeat IPC: 0.70241 cumulative IPC: 0.678171 (Simulation time: 0 hr 8 min 27 sec) 
Heartbeat CPU 0 instructions: 70000001 cycles: 56351645 heartbeat IPC: 0.746149 cumulative IPC: 0.699411 (Simulation time: 0 hr 10 min 2 sec) 
Heartbeat CPU 0 instructions: 80000002 cycles: 69218283 heartbeat IPC: 0.777204 cumulative IPC: 0.717362 (Simulation time: 0 hr 11 min 40 sec) 
Heartbeat CPU 0 instructions: 90000000 cycles: 82141398 heartbeat IPC: 0.773807 cumulative IPC: 0.727982 (Simulation time: 0 hr 13 min 24 sec) 
Heartbeat CPU 0 instructions: 100000003 cycles: 93993582 heartbeat IPC: 0.843727 cumulative IPC: 0.745016 (Simulation time: 0 hr 14 min 57 sec) 
Heartbeat CPU 0 instructions: 110000001 cycles: 105438236 heartbeat IPC: 0.87377 cumulative IPC: 0.761036 (Simulation time: 0 hr 16 min 34 sec) 
Heartbeat CPU 0 instructions: 120000000 cycles: 116666623 heartbeat IPC: 0.8906 cumulative IPC: 0.775132 (Simulation time: 0 hr 18 min 3 sec) 
Heartbeat CPU 0 instructions: 130000003 cycles: 127414750 heartbeat IPC: 0.930395 cumulative IPC: 0.789776 (Simulation time: 0 hr 19 min 32 sec) 
Heartbeat CPU 0 instructions: 140000001 cycles: 137964990 heartbeat IPC: 0.947846 cumulative IPC: 0.80317 (Simulation time: 0 hr 20 min 56 sec) 
Finished CPU 0 instructions: 100000001 cycles: 124506612 cumulative IPC: 0.80317 (Simulation time: 0 hr 20 min 56 sec) 

ChampSim completed all CPUs

Region of Interest Statistics

CPU 0 cumulative IPC: 0.80317 instructions: 100000001 cycles: 124506612
cpu0_DTLB TOTAL     ACCESS:   24828086  HIT:   22716483  MISS:    2111603
cpu0_DTLB LOAD      ACCESS:   23869406  HIT:   22139727  MISS:    1729679
cpu0_DTLB RFO       ACCESS:     958680  HIT:     576756  MISS:     381924
cpu0_DTLB PREFETCH  ACCESS:          0  HIT:          0  MISS:          0
cpu0_DTLB WRITEBACK ACCESS:          0  HIT:          0  MISS:          0
cpu0_DTLB TRANSLATION ACCESS:          0  HIT:          0  MISS:          0
cpu0_DTLB PREFETCH  REQUESTED:          0  ISSUED:          0  USEFUL:          0  USELESS:          0
cpu0_DTLB AVERAGE MISS LATENCY: 10.6919 cycles
cpu0_DTLB MSHR FULL EVENTS: 318 MSHR MERGE EVENTS: 575428
cpu0_ITLB TOTAL     ACCESS:    8827747  HIT:    8827747  MISS:          0
cpu0_ITLB LOAD      ACCESS:    8827747  HIT:    8827747  MISS:          0
cpu0_ITLB RFO       ACCESS:          0  HIT:          0  MISS:          0
cpu0_ITLB PREFETCH  ACCESS:          0  HIT:          0  MISS:          0
cpu0_ITLB WRITEBACK ACCESS:          0  HIT:          0  MISS:          0
cpu0_ITLB TRANSLATION ACCESS:          0  HIT:          0  MISS:          0
cpu0_ITLB PREFETCH  REQUESTED:          0  ISSUED:          0  USEFUL:          0  USELESS:          0
cpu0_ITLB AVERAGE MISS LATENCY: -nan cycles
cpu0_ITLB MSHR FULL EVENTS: 0 MSHR MERGE EVENTS: 0
cpu0_L1I TOTAL     ACCESS:      15438  HIT:      15438  MISS:          0
cpu0_L1I LOAD      ACCESS:      15438  HIT:      15438  MISS:          0
cpu0_L1I RFO       ACCESS:          0  HIT:          0  MISS:          0
cpu0_L1I PREFETCH  ACCESS:          0  HIT:          0  MISS:          0
cpu0_L1I WRITEBACK ACCESS:          0  HIT:          0  MISS:          0
cpu0_L1I TRANSLATION ACCESS:          0  HIT:          0  MISS:          0
cpu0_L1I PREFETCH  REQUESTED:          0  ISSUED:          0  USEFUL:          0  USELESS:          0
cpu0_L1I AVERAGE MISS LATENCY: -nan cycles
cpu0_L1I MSHR FULL EVENTS: 0 MSHR MERGE EVENTS: 0
cpu0_STLB TOTAL     ACCESS:    2111603  HIT:    2084927  MISS:      26676
cpu0_STLB LOAD      ACCESS:    1729679  HIT:    1707395  MISS:      22284
cpu0_STLB RFO       ACCESS:     381924  HIT:     377532  MISS:       4392
cpu0_STLB PREFETCH  ACCESS:          0  HIT:          0  MISS:          0
cpu0_STLB WRITEBACK ACCESS:          0  HIT:          0  MISS:          0
cpu0_STLB TRANSLATION ACCESS:          0  HIT:          0  MISS:          0
cpu0_STLB PREFETCH  REQUESTED:          0  ISSUED:          0  USEFUL:          0  USELESS:          0
cpu0_STLB AVERAGE MISS LATENCY: 125.425 cycles
cpu0_STLB MSHR FULL EVENTS: 0 MSHR MERGE EVENTS: 0
cpu0_L1D TOTAL     ACCESS:   19635805  HIT:   14288469  MISS:    5347336
cpu0_L1D LOAD      ACCESS:   18197695  HIT:   13162961  MISS:    5034734
cpu0_L1D RFO       ACCESS:    1411559  HIT:    1107604  MISS:     303955
cpu0_L1D PREFETCH  ACCESS:          0  HIT:          0  MISS:          0
cpu0_L1D WRITEBACK ACCESS:          0  HIT:          0  MISS:          0
cpu0_L1D TRANSLATION ACCESS:      26551  HIT:      17904  MISS:       8647
cpu0_L1D PREFETCH  REQUESTED:          0  ISSUED:          0  USEFUL:          0  USELESS:          0
cpu0_L1D AVERAGE MISS LATENCY: 32.9719 cycles
cpu0_L1D MSHR FULL EVENTS: 385451 MSHR MERGE EVENTS: 2803791
cpu0_L2C TOTAL     ACCESS:    6234681  HIT:    3050732  MISS:    3183719
cpu0_L2C LOAD      ACCESS:    5034729  HIT:    1927585  MISS:    3107144
cpu0_L2C RFO       ACCESS:     303948  HIT:     229013  MISS:      74935
cpu0_L2C PREFETCH  ACCESS:          0  HIT:          0  MISS:          0
cpu0_L2C WRITEBACK ACCESS:     887357  HIT:     887127  MISS:        230
cpu0_L2C TRANSLATION ACCESS:       8647  HIT:       7007  MISS:       1640
cpu0_L2C PREFETCH  REQUESTED:          0  ISSUED:          0  USEFUL:          0  USELESS:          0
cpu0_L2C AVERAGE MISS LATENCY: 37.45 cycles
cpu0_L2C MSHR FULL EVENTS: 0 MSHR MERGE EVENTS: 0
LLC TOTAL     ACCESS:    6367629  HIT:    2578515  MISS:     605206
LLC LOAD      ACCESS:    3107105  HIT:    2539221  MISS:     567884
LLC RFO       ACCESS:      74935  HIT:      37613  MISS:      37322
LLC PREFETCH  ACCESS:          0  HIT:          0  MISS:          0
LLC WRITEBACK ACCESS:    3183949  HIT:         41  MISS:    3183908
LLC TRANSLATION ACCESS:       1640  HIT:       1640  MISS:          0
LLC PREFETCH  REQUESTED:          0  ISSUED:          0  USEFUL:          0  USELESS:          0
LLC AVERAGE MISS LATENCY: 87.4692 cycles
LLC MSHR FULL EVENTS: 0 MSHR MERGE EVENTS: 0
blocks bypassed = 0
blocks filled to llc = 0

DRAM Statistics
 CHANNEL 0
 RQ ROW_BUFFER_HIT:     468212  ROW_BUFFER_MISS:     136994
 DBUS AVG_CONGESTED_CYCLE:    3.89986
 WQ ROW_BUFFER_HIT:         45  ROW_BUFFER_MISS:        192  FULL:          0


CPU 0 Branch Prediction Accuracy: 94.5401% MPKI: 8.09881 Average ROB Occupancy at Mispredict: 83.1027
Branch type MPKI
BRANCH_DIRECT_JUMP: 1e-05
BRANCH_INDIRECT: 0
BRANCH_CONDITIONAL: 8.0988
BRANCH_DIRECT_CALL: 0
BRANCH_INDIRECT_CALL: 0
BRANCH_RETURN: 0

