
*** ChampSim Multicore Out-of-Order Simulator ***

Warmup Instructions: 40000000
Simulation Instructions: 100000000
Number of CPUs: 1
Off-chip DRAM Size: 4 GiB Channels: 1 Width: 64-bit Data Rate: 3200 MT/s

VirtualMemory physical capacity: 4293914624 num_ppages: 1048319
VirtualMemory page size: 4096 log2_page_size: 12

CPU 0 runs ../../../../ICS/traces//sssp-3.trace.gz
CPU 0 Bimodal branch predictor
Basic BTB sets: 1024 ways: 8 indirect buffer size: 4096 RAS size: 64
Heartbeat CPU 0 instructions: 10000002 cycles: 2980178 heartbeat IPC: 3.3555 cumulative IPC: 3.3555 (Simulation time: 0 hr 0 min 53 sec) 
Heartbeat CPU 0 instructions: 20000001 cycles: 6362102 heartbeat IPC: 2.9569 cumulative IPC: 3.14362 (Simulation time: 0 hr 1 min 41 sec) 
Heartbeat CPU 0 instructions: 30000002 cycles: 9909298 heartbeat IPC: 2.81913 cumulative IPC: 3.02746 (Simulation time: 0 hr 2 min 49 sec) 
Heartbeat CPU 0 instructions: 40000001 cycles: 13481115 heartbeat IPC: 2.7997 cumulative IPC: 2.96711 (Simulation time: 0 hr 3 min 52 sec) 

Warmup complete CPU 0 instructions: 40000001 cycles: 13481115 (Simulation time: 0 hr 3 min 52 sec) 

Heartbeat CPU 0 instructions: 50000002 cycles: 29149687 heartbeat IPC: 0.63822 cumulative IPC: 0.63822 (Simulation time: 0 hr 5 min 5 sec) 
Heartbeat CPU 0 instructions: 60000002 cycles: 43637349 heartbeat IPC: 0.690242 cumulative IPC: 0.663213 (Simulation time: 0 hr 6 min 19 sec) 
Heartbeat CPU 0 instructions: 70000003 cycles: 57244946 heartbeat IPC: 0.734884 cumulative IPC: 0.685498 (Simulation time: 0 hr 7 min 30 sec) 
Heartbeat CPU 0 instructions: 80000000 cycles: 70166796 heartbeat IPC: 0.773883 cumulative IPC: 0.705646 (Simulation time: 0 hr 8 min 44 sec) 
Heartbeat CPU 0 instructions: 90000000 cycles: 82723081 heartbeat IPC: 0.796414 cumulative IPC: 0.722105 (Simulation time: 0 hr 9 min 59 sec) 
Heartbeat CPU 0 instructions: 100000000 cycles: 94584397 heartbeat IPC: 0.843077 cumulative IPC: 0.739797 (Simulation time: 0 hr 11 min 15 sec) 
Heartbeat CPU 0 instructions: 110000004 cycles: 106317633 heartbeat IPC: 0.85228 cumulative IPC: 0.754014 (Simulation time: 0 hr 12 min 29 sec) 
Heartbeat CPU 0 instructions: 120000000 cycles: 117448951 heartbeat IPC: 0.898366 cumulative IPC: 0.769469 (Simulation time: 0 hr 13 min 42 sec) 
Heartbeat CPU 0 instructions: 130000002 cycles: 128338932 heartbeat IPC: 0.918275 cumulative IPC: 0.783578 (Simulation time: 0 hr 14 min 57 sec) 
Heartbeat CPU 0 instructions: 140000000 cycles: 138787880 heartbeat IPC: 0.957034 cumulative IPC: 0.798042 (Simulation time: 0 hr 16 min 10 sec) 
Finished CPU 0 instructions: 100000001 cycles: 125306798 cumulative IPC: 0.798041 (Simulation time: 0 hr 16 min 10 sec) 

ChampSim completed all CPUs

Region of Interest Statistics

CPU 0 cumulative IPC: 0.798041 instructions: 100000001 cycles: 125306798
cpu0_DTLB TOTAL     ACCESS:   24570081  HIT:   22646115  MISS:    1923966
cpu0_DTLB LOAD      ACCESS:   23588720  HIT:   22045522  MISS:    1543198
cpu0_DTLB RFO       ACCESS:     981361  HIT:     600593  MISS:     380768
cpu0_DTLB PREFETCH  ACCESS:          0  HIT:          0  MISS:          0
cpu0_DTLB WRITEBACK ACCESS:          0  HIT:          0  MISS:          0
cpu0_DTLB TRANSLATION ACCESS:          0  HIT:          0  MISS:          0
cpu0_DTLB PREFETCH  REQUESTED:          0  ISSUED:          0  USEFUL:          0  USELESS:          0
cpu0_DTLB AVERAGE MISS LATENCY: 10.7692 cycles
cpu0_DTLB MSHR FULL EVENTS: 271 MSHR MERGE EVENTS: 559358
cpu0_ITLB TOTAL     ACCESS:    8852962  HIT:    8852962  MISS:          0
cpu0_ITLB LOAD      ACCESS:    8852962  HIT:    8852962  MISS:          0
cpu0_ITLB RFO       ACCESS:          0  HIT:          0  MISS:          0
cpu0_ITLB PREFETCH  ACCESS:          0  HIT:          0  MISS:          0
cpu0_ITLB WRITEBACK ACCESS:          0  HIT:          0  MISS:          0
cpu0_ITLB TRANSLATION ACCESS:          0  HIT:          0  MISS:          0
cpu0_ITLB PREFETCH  REQUESTED:          0  ISSUED:          0  USEFUL:          0  USELESS:          0
cpu0_ITLB AVERAGE MISS LATENCY: -nan cycles
cpu0_ITLB MSHR FULL EVENTS: 0 MSHR MERGE EVENTS: 0
cpu0_L1I TOTAL     ACCESS:      14767  HIT:      14767  MISS:          0
cpu0_L1I LOAD      ACCESS:      14767  HIT:      14767  MISS:          0
cpu0_L1I RFO       ACCESS:          0  HIT:          0  MISS:          0
cpu0_L1I PREFETCH  ACCESS:          0  HIT:          0  MISS:          0
cpu0_L1I WRITEBACK ACCESS:          0  HIT:          0  MISS:          0
cpu0_L1I TRANSLATION ACCESS:          0  HIT:          0  MISS:          0
cpu0_L1I PREFETCH  REQUESTED:          0  ISSUED:          0  USEFUL:          0  USELESS:          0
cpu0_L1I AVERAGE MISS LATENCY: -nan cycles
cpu0_L1I MSHR FULL EVENTS: 0 MSHR MERGE EVENTS: 0
cpu0_STLB TOTAL     ACCESS:    1923966  HIT:    1898644  MISS:      25322
cpu0_STLB LOAD      ACCESS:    1543198  HIT:    1522210  MISS:      20988
cpu0_STLB RFO       ACCESS:     380768  HIT:     376434  MISS:       4334
cpu0_STLB PREFETCH  ACCESS:          0  HIT:          0  MISS:          0
cpu0_STLB WRITEBACK ACCESS:          0  HIT:          0  MISS:          0
cpu0_STLB TRANSLATION ACCESS:          0  HIT:          0  MISS:          0
cpu0_STLB PREFETCH  REQUESTED:          0  ISSUED:          0  USEFUL:          0  USELESS:          0
cpu0_STLB AVERAGE MISS LATENCY: 126.723 cycles
cpu0_STLB MSHR FULL EVENTS: 0 MSHR MERGE EVENTS: 0
cpu0_L1D TOTAL     ACCESS:   22969231  HIT:   17666693  MISS:    5302538
cpu0_L1D LOAD      ACCESS:   21491583  HIT:   16505624  MISS:    4985959
cpu0_L1D RFO       ACCESS:    1452438  HIT:    1144105  MISS:     308333
cpu0_L1D PREFETCH  ACCESS:          0  HIT:          0  MISS:          0
cpu0_L1D WRITEBACK ACCESS:          0  HIT:          0  MISS:          0
cpu0_L1D TRANSLATION ACCESS:      25210  HIT:      16964  MISS:       8246
cpu0_L1D PREFETCH  REQUESTED:          0  ISSUED:          0  USEFUL:          0  USELESS:          0
cpu0_L1D AVERAGE MISS LATENCY: 33.3555 cycles
cpu0_L1D MSHR FULL EVENTS: 419187 MSHR MERGE EVENTS: 2681912
cpu0_L2C TOTAL     ACCESS:    6204830  HIT:    2954189  MISS:    3250225
cpu0_L2C LOAD      ACCESS:    4985953  HIT:    1815620  MISS:    3170333
cpu0_L2C RFO       ACCESS:     308323  HIT:     230085  MISS:      78238
cpu0_L2C PREFETCH  ACCESS:          0  HIT:          0  MISS:          0
cpu0_L2C WRITEBACK ACCESS:     902308  HIT:     901892  MISS:        416
cpu0_L2C TRANSLATION ACCESS:       8246  HIT:       6592  MISS:       1654
cpu0_L2C PREFETCH  REQUESTED:          0  ISSUED:          0  USEFUL:          0  USELESS:          0
cpu0_L2C AVERAGE MISS LATENCY: 37.0172 cycles
cpu0_L2C MSHR FULL EVENTS: 0 MSHR MERGE EVENTS: 0
LLC TOTAL     ACCESS:    6500828  HIT:    2645780  MISS:     604440
LLC LOAD      ACCESS:    3170295  HIT:    2605695  MISS:     564600
LLC RFO       ACCESS:      78238  HIT:      38398  MISS:      39840
LLC PREFETCH  ACCESS:          0  HIT:          0  MISS:          0
LLC WRITEBACK ACCESS:    3250641  HIT:         33  MISS:    3250608
LLC TRANSLATION ACCESS:       1654  HIT:       1654  MISS:          0
LLC PREFETCH  REQUESTED:          0  ISSUED:          0  USEFUL:          0  USELESS:          0
LLC AVERAGE MISS LATENCY: 87.0432 cycles
LLC MSHR FULL EVENTS: 0 MSHR MERGE EVENTS: 0
blocks bypassed = 0
blocks filled to llc = 0

DRAM Statistics
 CHANNEL 0
 RQ ROW_BUFFER_HIT:     471166  ROW_BUFFER_MISS:     133274
 DBUS AVG_CONGESTED_CYCLE:    3.89209
 WQ ROW_BUFFER_HIT:         97  ROW_BUFFER_MISS:        335  FULL:          0


CPU 0 Branch Prediction Accuracy: 94.4267% MPKI: 8.26397 Average ROB Occupancy at Mispredict: 81.5415
Branch type MPKI
BRANCH_DIRECT_JUMP: 1e-05
BRANCH_INDIRECT: 0
BRANCH_CONDITIONAL: 8.26396
BRANCH_DIRECT_CALL: 0
BRANCH_INDIRECT_CALL: 0
BRANCH_RETURN: 0

