
*** ChampSim Multicore Out-of-Order Simulator ***

Warmup Instructions: 40000000
Simulation Instructions: 100000000
Number of CPUs: 1
Off-chip DRAM Size: 4 GiB Channels: 1 Width: 64-bit Data Rate: 3200 MT/s

VirtualMemory physical capacity: 4293914624 num_ppages: 1048319
VirtualMemory page size: 4096 log2_page_size: 12

CPU 0 runs ../../../../ICS/traces//MIS_17000M.champsim.xz
CPU 0 Bimodal branch predictor
Basic BTB sets: 1024 ways: 8 indirect buffer size: 4096 RAS size: 64
Heartbeat CPU 0 instructions: 10000002 cycles: 2686378 heartbeat IPC: 3.72249 cumulative IPC: 3.72249 (Simulation time: 0 hr 1 min 10 sec) 
Heartbeat CPU 0 instructions: 20000002 cycles: 5228127 heartbeat IPC: 3.9343 cumulative IPC: 3.82546 (Simulation time: 0 hr 2 min 0 sec) 
Heartbeat CPU 0 instructions: 30000003 cycles: 7831584 heartbeat IPC: 3.84105 cumulative IPC: 3.83064 (Simulation time: 0 hr 2 min 49 sec) 
Heartbeat CPU 0 instructions: 40000002 cycles: 10523822 heartbeat IPC: 3.71438 cumulative IPC: 3.8009 (Simulation time: 0 hr 3 min 56 sec) 

Warmup complete CPU 0 instructions: 40000002 cycles: 10523822 (Simulation time: 0 hr 3 min 56 sec) 

Heartbeat CPU 0 instructions: 50000003 cycles: 13249055 heartbeat IPC: 3.66941 cumulative IPC: 3.66941 (Simulation time: 0 hr 5 min 21 sec) 
Heartbeat CPU 0 instructions: 60000000 cycles: 18386111 heartbeat IPC: 1.94664 cumulative IPC: 2.54379 (Simulation time: 0 hr 7 min 12 sec) 
Heartbeat CPU 0 instructions: 70000001 cycles: 21574703 heartbeat IPC: 3.13618 cumulative IPC: 2.71472 (Simulation time: 0 hr 8 min 33 sec) 
Heartbeat CPU 0 instructions: 80000001 cycles: 26489973 heartbeat IPC: 2.03448 cumulative IPC: 2.5053 (Simulation time: 0 hr 10 min 20 sec) 
Heartbeat CPU 0 instructions: 90000004 cycles: 29635827 heartbeat IPC: 3.17879 cumulative IPC: 2.61616 (Simulation time: 0 hr 11 min 36 sec) 
Heartbeat CPU 0 instructions: 100000004 cycles: 34329767 heartbeat IPC: 2.13041 cumulative IPC: 2.52038 (Simulation time: 0 hr 13 min 10 sec) 
Heartbeat CPU 0 instructions: 110000003 cycles: 38349546 heartbeat IPC: 2.4877 cumulative IPC: 2.51566 (Simulation time: 0 hr 14 min 32 sec) 
Heartbeat CPU 0 instructions: 120000002 cycles: 42527463 heartbeat IPC: 2.39354 cumulative IPC: 2.49972 (Simulation time: 0 hr 15 min 59 sec) 
Heartbeat CPU 0 instructions: 130000001 cycles: 46109671 heartbeat IPC: 2.79157 cumulative IPC: 2.5291 (Simulation time: 0 hr 17 min 20 sec) 
Heartbeat CPU 0 instructions: 140000001 cycles: 50110665 heartbeat IPC: 2.49938 cumulative IPC: 2.52609 (Simulation time: 0 hr 18 min 42 sec) 
Finished CPU 0 instructions: 100000004 cycles: 39586844 cumulative IPC: 2.52609 (Simulation time: 0 hr 18 min 42 sec) 

ChampSim completed all CPUs

Region of Interest Statistics

CPU 0 cumulative IPC: 2.52609 instructions: 100000004 cycles: 39586844
cpu0_DTLB TOTAL     ACCESS:   24505595  HIT:   24451703  MISS:      53892
cpu0_DTLB LOAD      ACCESS:   13024151  HIT:   13005960  MISS:      18191
cpu0_DTLB RFO       ACCESS:   11481444  HIT:   11445743  MISS:      35701
cpu0_DTLB PREFETCH  ACCESS:          0  HIT:          0  MISS:          0
cpu0_DTLB WRITEBACK ACCESS:          0  HIT:          0  MISS:          0
cpu0_DTLB TRANSLATION ACCESS:          0  HIT:          0  MISS:          0
cpu0_DTLB PREFETCH  REQUESTED:          0  ISSUED:          0  USEFUL:          0  USELESS:          0
cpu0_DTLB AVERAGE MISS LATENCY: 31.9601 cycles
cpu0_DTLB MSHR FULL EVENTS: 27524 MSHR MERGE EVENTS: 149537
cpu0_ITLB TOTAL     ACCESS:    1573546  HIT:    1573546  MISS:          0
cpu0_ITLB LOAD      ACCESS:    1573546  HIT:    1573546  MISS:          0
cpu0_ITLB RFO       ACCESS:          0  HIT:          0  MISS:          0
cpu0_ITLB PREFETCH  ACCESS:          0  HIT:          0  MISS:          0
cpu0_ITLB WRITEBACK ACCESS:          0  HIT:          0  MISS:          0
cpu0_ITLB TRANSLATION ACCESS:          0  HIT:          0  MISS:          0
cpu0_ITLB PREFETCH  REQUESTED:          0  ISSUED:          0  USEFUL:          0  USELESS:          0
cpu0_ITLB AVERAGE MISS LATENCY: -nan cycles
cpu0_ITLB MSHR FULL EVENTS: 0 MSHR MERGE EVENTS: 0
cpu0_L1I TOTAL     ACCESS:        402  HIT:        402  MISS:          0
cpu0_L1I LOAD      ACCESS:        402  HIT:        402  MISS:          0
cpu0_L1I RFO       ACCESS:          0  HIT:          0  MISS:          0
cpu0_L1I PREFETCH  ACCESS:          0  HIT:          0  MISS:          0
cpu0_L1I WRITEBACK ACCESS:          0  HIT:          0  MISS:          0
cpu0_L1I TRANSLATION ACCESS:          0  HIT:          0  MISS:          0
cpu0_L1I PREFETCH  REQUESTED:          0  ISSUED:          0  USEFUL:          0  USELESS:          0
cpu0_L1I AVERAGE MISS LATENCY: -nan cycles
cpu0_L1I MSHR FULL EVENTS: 0 MSHR MERGE EVENTS: 0
cpu0_STLB TOTAL     ACCESS:      53892  HIT:      41737  MISS:      12155
cpu0_STLB LOAD      ACCESS:      18191  HIT:      12387  MISS:       5804
cpu0_STLB RFO       ACCESS:      35701  HIT:      29350  MISS:       6351
cpu0_STLB PREFETCH  ACCESS:          0  HIT:          0  MISS:          0
cpu0_STLB WRITEBACK ACCESS:          0  HIT:          0  MISS:          0
cpu0_STLB TRANSLATION ACCESS:          0  HIT:          0  MISS:          0
cpu0_STLB PREFETCH  REQUESTED:          0  ISSUED:          0  USEFUL:          0  USELESS:          0
cpu0_STLB AVERAGE MISS LATENCY: 102.971 cycles
cpu0_STLB MSHR FULL EVENTS: 0 MSHR MERGE EVENTS: 0
cpu0_L1D TOTAL     ACCESS:   25137255  HIT:   22665063  MISS:    2472192
cpu0_L1D LOAD      ACCESS:    8605192  HIT:    7230561  MISS:    1374631
cpu0_L1D RFO       ACCESS:   16521768  HIT:   15425503  MISS:    1096265
cpu0_L1D PREFETCH  ACCESS:          0  HIT:          0  MISS:          0
cpu0_L1D WRITEBACK ACCESS:          0  HIT:          0  MISS:          0
cpu0_L1D TRANSLATION ACCESS:      10295  HIT:       8999  MISS:       1296
cpu0_L1D PREFETCH  REQUESTED:          0  ISSUED:          0  USEFUL:          0  USELESS:          0
cpu0_L1D AVERAGE MISS LATENCY: 104.657 cycles
cpu0_L1D MSHR FULL EVENTS: 9646779 MSHR MERGE EVENTS: 5580660
cpu0_L2C TOTAL     ACCESS:    3570902  HIT:    1560000  MISS:    2010865
cpu0_L2C LOAD      ACCESS:    1374609  HIT:     396278  MISS:     978331
cpu0_L2C RFO       ACCESS:    1096132  HIT:      63668  MISS:    1032464
cpu0_L2C PREFETCH  ACCESS:          0  HIT:          0  MISS:          0
cpu0_L2C WRITEBACK ACCESS:    1098865  HIT:    1098828  MISS:         37
cpu0_L2C TRANSLATION ACCESS:       1296  HIT:       1226  MISS:         70
cpu0_L2C PREFETCH  REQUESTED:          0  ISSUED:          0  USEFUL:          0  USELESS:          0
cpu0_L2C AVERAGE MISS LATENCY: 116.115 cycles
cpu0_L2C MSHR FULL EVENTS: 0 MSHR MERGE EVENTS: 0
LLC TOTAL     ACCESS:    4021763  HIT:    1551678  MISS:     459186
LLC LOAD      ACCESS:     978328  HIT:     763922  MISS:     214406
LLC RFO       ACCESS:    1032464  HIT:     787686  MISS:     244778
LLC PREFETCH  ACCESS:          0  HIT:          0  MISS:          0
LLC WRITEBACK ACCESS:    2010901  HIT:          2  MISS:    2010899
LLC TRANSLATION ACCESS:         70  HIT:         68  MISS:          2
LLC PREFETCH  REQUESTED:          0  ISSUED:          0  USEFUL:          0  USELESS:          0
LLC AVERAGE MISS LATENCY: 417.528 cycles
LLC MSHR FULL EVENTS: 0 MSHR MERGE EVENTS: 0
blocks bypassed = 0
blocks filled to llc = 0

DRAM Statistics
 CHANNEL 0
 RQ ROW_BUFFER_HIT:     180963  ROW_BUFFER_MISS:     278224
 DBUS AVG_CONGESTED_CYCLE:    3.96187
 WQ ROW_BUFFER_HIT:         56  ROW_BUFFER_MISS:         23  FULL:          0


CPU 0 Branch Prediction Accuracy: 98.3856% MPKI: 1.63501 Average ROB Occupancy at Mispredict: 155.577
Branch type MPKI
BRANCH_DIRECT_JUMP: 0
BRANCH_INDIRECT: 0
BRANCH_CONDITIONAL: 1.635
BRANCH_DIRECT_CALL: 0
BRANCH_INDIRECT_CALL: 0
BRANCH_RETURN: 1e-05

