
*** ChampSim Multicore Out-of-Order Simulator ***

Warmup Instructions: 40000000
Simulation Instructions: 100000000
Number of CPUs: 1
Off-chip DRAM Size: 4 GiB Channels: 1 Width: 64-bit Data Rate: 3200 MT/s

VirtualMemory physical capacity: 4293914624 num_ppages: 1048319
VirtualMemory page size: 4096 log2_page_size: 12

CPU 0 runs ../../../../ICS/traces//bc-12.trace.gz
CPU 0 Bimodal branch predictor
Basic BTB sets: 1024 ways: 8 indirect buffer size: 4096 RAS size: 64
Heartbeat CPU 0 instructions: 10000003 cycles: 3161879 heartbeat IPC: 3.16268 cumulative IPC: 3.16268 (Simulation time: 0 hr 1 min 16 sec) 
Heartbeat CPU 0 instructions: 20000003 cycles: 5714051 heartbeat IPC: 3.91823 cumulative IPC: 3.50014 (Simulation time: 0 hr 2 min 5 sec) 
Heartbeat CPU 0 instructions: 30000000 cycles: 8259748 heartbeat IPC: 3.9282 cumulative IPC: 3.63207 (Simulation time: 0 hr 2 min 57 sec) 
Heartbeat CPU 0 instructions: 40000004 cycles: 10816169 heartbeat IPC: 3.91172 cumulative IPC: 3.69817 (Simulation time: 0 hr 3 min 51 sec) 

Warmup complete CPU 0 instructions: 40000004 cycles: 10816169 (Simulation time: 0 hr 3 min 51 sec) 

Heartbeat CPU 0 instructions: 50000004 cycles: 35332850 heartbeat IPC: 0.407886 cumulative IPC: 0.407886 (Simulation time: 0 hr 5 min 10 sec) 
Heartbeat CPU 0 instructions: 60000001 cycles: 59911327 heartbeat IPC: 0.40686 cumulative IPC: 0.407372 (Simulation time: 0 hr 6 min 31 sec) 
Heartbeat CPU 0 instructions: 70000000 cycles: 84773864 heartbeat IPC: 0.402212 cumulative IPC: 0.405637 (Simulation time: 0 hr 7 min 57 sec) 
Heartbeat CPU 0 instructions: 80000002 cycles: 109855675 heartbeat IPC: 0.398695 cumulative IPC: 0.403879 (Simulation time: 0 hr 9 min 12 sec) 
Heartbeat CPU 0 instructions: 90000000 cycles: 134777388 heartbeat IPC: 0.401256 cumulative IPC: 0.403352 (Simulation time: 0 hr 10 min 27 sec) 
Heartbeat CPU 0 instructions: 100000001 cycles: 159628658 heartbeat IPC: 0.402394 cumulative IPC: 0.403192 (Simulation time: 0 hr 11 min 46 sec) 
Heartbeat CPU 0 instructions: 110000000 cycles: 184457745 heartbeat IPC: 0.402753 cumulative IPC: 0.403129 (Simulation time: 0 hr 13 min 7 sec) 
Heartbeat CPU 0 instructions: 120000001 cycles: 208803305 heartbeat IPC: 0.410753 cumulative IPC: 0.404067 (Simulation time: 0 hr 14 min 23 sec) 
Heartbeat CPU 0 instructions: 130000000 cycles: 233683624 heartbeat IPC: 0.401924 cumulative IPC: 0.403827 (Simulation time: 0 hr 15 min 42 sec) 
Heartbeat CPU 0 instructions: 140000000 cycles: 257918605 heartbeat IPC: 0.412627 cumulative IPC: 0.40469 (Simulation time: 0 hr 16 min 50 sec) 
Finished CPU 0 instructions: 100000001 cycles: 247102460 cumulative IPC: 0.40469 (Simulation time: 0 hr 16 min 50 sec) 

ChampSim completed all CPUs

Region of Interest Statistics

CPU 0 cumulative IPC: 0.40469 instructions: 100000001 cycles: 247102460
cpu0_DTLB TOTAL     ACCESS:   23548712  HIT:   19904335  MISS:    3644377
cpu0_DTLB LOAD      ACCESS:   18517307  HIT:   16152511  MISS:    2364796
cpu0_DTLB RFO       ACCESS:    5031405  HIT:    3751824  MISS:    1279581
cpu0_DTLB PREFETCH  ACCESS:          0  HIT:          0  MISS:          0
cpu0_DTLB WRITEBACK ACCESS:          0  HIT:          0  MISS:          0
cpu0_DTLB TRANSLATION ACCESS:          0  HIT:          0  MISS:          0
cpu0_DTLB PREFETCH  REQUESTED:          0  ISSUED:          0  USEFUL:          0  USELESS:          0
cpu0_DTLB AVERAGE MISS LATENCY: 12.806 cycles
cpu0_DTLB MSHR FULL EVENTS: 3643 MSHR MERGE EVENTS: 510350
cpu0_ITLB TOTAL     ACCESS:   11872192  HIT:   11872192  MISS:          0
cpu0_ITLB LOAD      ACCESS:   11872192  HIT:   11872192  MISS:          0
cpu0_ITLB RFO       ACCESS:          0  HIT:          0  MISS:          0
cpu0_ITLB PREFETCH  ACCESS:          0  HIT:          0  MISS:          0
cpu0_ITLB WRITEBACK ACCESS:          0  HIT:          0  MISS:          0
cpu0_ITLB TRANSLATION ACCESS:          0  HIT:          0  MISS:          0
cpu0_ITLB PREFETCH  REQUESTED:          0  ISSUED:          0  USEFUL:          0  USELESS:          0
cpu0_ITLB AVERAGE MISS LATENCY: -nan cycles
cpu0_ITLB MSHR FULL EVENTS: 0 MSHR MERGE EVENTS: 0
cpu0_L1I TOTAL     ACCESS:        187  HIT:        187  MISS:          0
cpu0_L1I LOAD      ACCESS:        187  HIT:        187  MISS:          0
cpu0_L1I RFO       ACCESS:          0  HIT:          0  MISS:          0
cpu0_L1I PREFETCH  ACCESS:          0  HIT:          0  MISS:          0
cpu0_L1I WRITEBACK ACCESS:          0  HIT:          0  MISS:          0
cpu0_L1I TRANSLATION ACCESS:          0  HIT:          0  MISS:          0
cpu0_L1I PREFETCH  REQUESTED:          0  ISSUED:          0  USEFUL:          0  USELESS:          0
cpu0_L1I AVERAGE MISS LATENCY: -nan cycles
cpu0_L1I MSHR FULL EVENTS: 0 MSHR MERGE EVENTS: 0
cpu0_STLB TOTAL     ACCESS:    3644377  HIT:    2025356  MISS:    1619021
cpu0_STLB LOAD      ACCESS:    2364796  HIT:    1506035  MISS:     858761
cpu0_STLB RFO       ACCESS:    1279581  HIT:     519321  MISS:     760260
cpu0_STLB PREFETCH  ACCESS:          0  HIT:          0  MISS:          0
cpu0_STLB WRITEBACK ACCESS:          0  HIT:          0  MISS:          0
cpu0_STLB TRANSLATION ACCESS:          0  HIT:          0  MISS:          0
cpu0_STLB PREFETCH  REQUESTED:          0  ISSUED:          0  USEFUL:          0  USELESS:          0
cpu0_STLB AVERAGE MISS LATENCY: 9.4372 cycles
cpu0_STLB MSHR FULL EVENTS: 0 MSHR MERGE EVENTS: 0
cpu0_L1D TOTAL     ACCESS:   30532438  HIT:   22009476  MISS:    8522962
cpu0_L1D LOAD      ACCESS:   23321263  HIT:   14826540  MISS:    8494723
cpu0_L1D RFO       ACCESS:    5650990  HIT:    5628190  MISS:      22800
cpu0_L1D PREFETCH  ACCESS:          0  HIT:          0  MISS:          0
cpu0_L1D WRITEBACK ACCESS:          0  HIT:          0  MISS:          0
cpu0_L1D TRANSLATION ACCESS:    1560185  HIT:    1554746  MISS:       5439
cpu0_L1D PREFETCH  REQUESTED:          0  ISSUED:          0  USEFUL:          0  USELESS:          0
cpu0_L1D AVERAGE MISS LATENCY: 30.0189 cycles
cpu0_L1D MSHR FULL EVENTS: 198937 MSHR MERGE EVENTS: 191198
cpu0_L2C TOTAL     ACCESS:   11374474  HIT:    4961043  MISS:    6413415
cpu0_L2C LOAD      ACCESS:    8494722  HIT:    2103946  MISS:    6390776
cpu0_L2C RFO       ACCESS:      22800  HIT:        289  MISS:      22511
cpu0_L2C PREFETCH  ACCESS:          0  HIT:          0  MISS:          0
cpu0_L2C WRITEBACK ACCESS:    2851513  HIT:    2851497  MISS:         16
cpu0_L2C TRANSLATION ACCESS:       5439  HIT:       5311  MISS:        128
cpu0_L2C PREFETCH  REQUESTED:          0  ISSUED:          0  USEFUL:          0  USELESS:          0
cpu0_L2C AVERAGE MISS LATENCY: 25.9929 cycles
cpu0_L2C MSHR FULL EVENTS: 0 MSHR MERGE EVENTS: 0
LLC TOTAL     ACCESS:   12826836  HIT:    6034461  MISS:     378954
LLC LOAD      ACCESS:    6390767  HIT:    6023078  MISS:     367689
LLC RFO       ACCESS:      22511  HIT:      11247  MISS:      11264
LLC PREFETCH  ACCESS:          0  HIT:          0  MISS:          0
LLC WRITEBACK ACCESS:    6413430  HIT:          9  MISS:    6413421
LLC TRANSLATION ACCESS:        128  HIT:        127  MISS:          1
LLC PREFETCH  REQUESTED:          0  ISSUED:          0  USEFUL:          0  USELESS:          0
LLC AVERAGE MISS LATENCY: 85.4997 cycles
LLC MSHR FULL EVENTS: 0 MSHR MERGE EVENTS: 0
blocks bypassed = 0
blocks filled to llc = 0

DRAM Statistics
 CHANNEL 0
 RQ ROW_BUFFER_HIT:     297541  ROW_BUFFER_MISS:      81413
 DBUS AVG_CONGESTED_CYCLE:    3.99293
 WQ ROW_BUFFER_HIT:          5  ROW_BUFFER_MISS:         18  FULL:          0


CPU 0 Branch Prediction Accuracy: 81.7743% MPKI: 31.8287 Average ROB Occupancy at Mispredict: 20.9051
Branch type MPKI
BRANCH_DIRECT_JUMP: 0
BRANCH_INDIRECT: 0
BRANCH_CONDITIONAL: 31.8287
BRANCH_DIRECT_CALL: 0
BRANCH_INDIRECT_CALL: 0
BRANCH_RETURN: 0

