
*** ChampSim Multicore Out-of-Order Simulator ***

Warmup Instructions: 40000000
Simulation Instructions: 100000000
Number of CPUs: 1
Off-chip DRAM Size: 4 GiB Channels: 1 Width: 64-bit Data Rate: 3200 MT/s

VirtualMemory physical capacity: 4293914624 num_ppages: 1048319
VirtualMemory page size: 4096 log2_page_size: 12

CPU 0 runs ../../../../ICS/traces//bfs-8.trace.gz
CPU 0 Bimodal branch predictor
Basic BTB sets: 1024 ways: 8 indirect buffer size: 4096 RAS size: 64
Heartbeat CPU 0 instructions: 10000003 cycles: 2500169 heartbeat IPC: 3.99973 cumulative IPC: 3.99973 (Simulation time: 0 hr 0 min 53 sec) 
Heartbeat CPU 0 instructions: 20000003 cycles: 5242669 heartbeat IPC: 3.64631 cumulative IPC: 3.81485 (Simulation time: 0 hr 1 min 55 sec) 
Heartbeat CPU 0 instructions: 30000000 cycles: 8057628 heartbeat IPC: 3.55245 cumulative IPC: 3.72318 (Simulation time: 0 hr 2 min 42 sec) 
Heartbeat CPU 0 instructions: 40000002 cycles: 10760739 heartbeat IPC: 3.69944 cumulative IPC: 3.71722 (Simulation time: 0 hr 3 min 48 sec) 

Warmup complete CPU 0 instructions: 40000002 cycles: 10760739 (Simulation time: 0 hr 3 min 48 sec) 

Heartbeat CPU 0 instructions: 50000001 cycles: 26646380 heartbeat IPC: 0.629499 cumulative IPC: 0.629499 (Simulation time: 0 hr 4 min 58 sec) 
Heartbeat CPU 0 instructions: 60000000 cycles: 31754847 heartbeat IPC: 1.95753 cumulative IPC: 0.952648 (Simulation time: 0 hr 5 min 50 sec) 
Heartbeat CPU 0 instructions: 70000000 cycles: 40811261 heartbeat IPC: 1.10419 cumulative IPC: 0.998319 (Simulation time: 0 hr 6 min 51 sec) 
Heartbeat CPU 0 instructions: 80000000 cycles: 56567024 heartbeat IPC: 0.634688 cumulative IPC: 0.873243 (Simulation time: 0 hr 8 min 6 sec) 
Heartbeat CPU 0 instructions: 90000001 cycles: 77782741 heartbeat IPC: 0.471349 cumulative IPC: 0.746024 (Simulation time: 0 hr 9 min 34 sec) 
Heartbeat CPU 0 instructions: 100000000 cycles: 98982302 heartbeat IPC: 0.471708 cumulative IPC: 0.680106 (Simulation time: 0 hr 11 min 6 sec) 
Heartbeat CPU 0 instructions: 110000002 cycles: 121712002 heartbeat IPC: 0.439953 cumulative IPC: 0.630908 (Simulation time: 0 hr 12 min 33 sec) 
Heartbeat CPU 0 instructions: 120000002 cycles: 142500757 heartbeat IPC: 0.481029 cumulative IPC: 0.607257 (Simulation time: 0 hr 13 min 52 sec) 
Heartbeat CPU 0 instructions: 130000001 cycles: 147817620 heartbeat IPC: 1.88081 cumulative IPC: 0.656662 (Simulation time: 0 hr 14 min 46 sec) 
Heartbeat CPU 0 instructions: 140000003 cycles: 152921221 heartbeat IPC: 1.9594 cumulative IPC: 0.70343 (Simulation time: 0 hr 15 min 40 sec) 
Finished CPU 0 instructions: 100000001 cycles: 142160482 cumulative IPC: 0.70343 (Simulation time: 0 hr 15 min 40 sec) 

ChampSim completed all CPUs

Region of Interest Statistics

CPU 0 cumulative IPC: 0.70343 instructions: 100000001 cycles: 142160482
cpu0_DTLB TOTAL     ACCESS:   20054570  HIT:   19897781  MISS:     156789
cpu0_DTLB LOAD      ACCESS:   17484275  HIT:   17330728  MISS:     153547
cpu0_DTLB RFO       ACCESS:    2570295  HIT:    2567053  MISS:       3242
cpu0_DTLB PREFETCH  ACCESS:          0  HIT:          0  MISS:          0
cpu0_DTLB WRITEBACK ACCESS:          0  HIT:          0  MISS:          0
cpu0_DTLB TRANSLATION ACCESS:          0  HIT:          0  MISS:          0
cpu0_DTLB PREFETCH  REQUESTED:          0  ISSUED:          0  USEFUL:          0  USELESS:          0
cpu0_DTLB AVERAGE MISS LATENCY: 13.7441 cycles
cpu0_DTLB MSHR FULL EVENTS: 68 MSHR MERGE EVENTS: 35241
cpu0_ITLB TOTAL     ACCESS:   10999952  HIT:   10999952  MISS:          0
cpu0_ITLB LOAD      ACCESS:   10999952  HIT:   10999952  MISS:          0
cpu0_ITLB RFO       ACCESS:          0  HIT:          0  MISS:          0
cpu0_ITLB PREFETCH  ACCESS:          0  HIT:          0  MISS:          0
cpu0_ITLB WRITEBACK ACCESS:          0  HIT:          0  MISS:          0
cpu0_ITLB TRANSLATION ACCESS:          0  HIT:          0  MISS:          0
cpu0_ITLB PREFETCH  REQUESTED:          0  ISSUED:          0  USEFUL:          0  USELESS:          0
cpu0_ITLB AVERAGE MISS LATENCY: -nan cycles
cpu0_ITLB MSHR FULL EVENTS: 0 MSHR MERGE EVENTS: 0
cpu0_L1I TOTAL     ACCESS:       1764  HIT:       1749  MISS:         15
cpu0_L1I LOAD      ACCESS:       1764  HIT:       1749  MISS:         15
cpu0_L1I RFO       ACCESS:          0  HIT:          0  MISS:          0
cpu0_L1I PREFETCH  ACCESS:          0  HIT:          0  MISS:          0
cpu0_L1I WRITEBACK ACCESS:          0  HIT:          0  MISS:          0
cpu0_L1I TRANSLATION ACCESS:          0  HIT:          0  MISS:          0
cpu0_L1I PREFETCH  REQUESTED:          0  ISSUED:          0  USEFUL:          0  USELESS:          0
cpu0_L1I AVERAGE MISS LATENCY: 186.533 cycles
cpu0_L1I MSHR FULL EVENTS: 0 MSHR MERGE EVENTS: 1
cpu0_STLB TOTAL     ACCESS:     156789  HIT:      57531  MISS:      99258
cpu0_STLB LOAD      ACCESS:     153547  HIT:      55402  MISS:      98145
cpu0_STLB RFO       ACCESS:       3242  HIT:       2129  MISS:       1113
cpu0_STLB PREFETCH  ACCESS:          0  HIT:          0  MISS:          0
cpu0_STLB WRITEBACK ACCESS:          0  HIT:          0  MISS:          0
cpu0_STLB TRANSLATION ACCESS:          0  HIT:          0  MISS:          0
cpu0_STLB PREFETCH  REQUESTED:          0  ISSUED:          0  USEFUL:          0  USELESS:          0
cpu0_STLB AVERAGE MISS LATENCY: 8.46761 cycles
cpu0_STLB MSHR FULL EVENTS: 0 MSHR MERGE EVENTS: 0
cpu0_L1D TOTAL     ACCESS:   15379618  HIT:   13170841  MISS:    2208777
cpu0_L1D LOAD      ACCESS:   12602587  HIT:   10490315  MISS:    2112272
cpu0_L1D RFO       ACCESS:    2680535  HIT:    2585446  MISS:      95089
cpu0_L1D PREFETCH  ACCESS:          0  HIT:          0  MISS:          0
cpu0_L1D WRITEBACK ACCESS:          0  HIT:          0  MISS:          0
cpu0_L1D TRANSLATION ACCESS:      96496  HIT:      95080  MISS:       1416
cpu0_L1D PREFETCH  REQUESTED:          0  ISSUED:          0  USEFUL:          0  USELESS:          0
cpu0_L1D AVERAGE MISS LATENCY: 27.8752 cycles
cpu0_L1D MSHR FULL EVENTS: 38273 MSHR MERGE EVENTS: 819903
cpu0_L2C TOTAL     ACCESS:    2473111  HIT:     825770  MISS:    1647336
cpu0_L2C LOAD      ACCESS:    2112286  HIT:     554284  MISS:    1558002
cpu0_L2C RFO       ACCESS:      95089  HIT:       5858  MISS:      89231
cpu0_L2C PREFETCH  ACCESS:          0  HIT:          0  MISS:          0
cpu0_L2C WRITEBACK ACCESS:     264320  HIT:     264315  MISS:          5
cpu0_L2C TRANSLATION ACCESS:       1416  HIT:       1313  MISS:        103
cpu0_L2C PREFETCH  REQUESTED:          0  ISSUED:          0  USEFUL:          0  USELESS:          0
cpu0_L2C AVERAGE MISS LATENCY: 23.5807 cycles
cpu0_L2C MSHR FULL EVENTS: 0 MSHR MERGE EVENTS: 0
LLC TOTAL     ACCESS:    3294677  HIT:    1618536  MISS:      28800
LLC LOAD      ACCESS:    1558002  HIT:    1531586  MISS:      26416
LLC RFO       ACCESS:      89231  HIT:      86847  MISS:       2384
LLC PREFETCH  ACCESS:          0  HIT:          0  MISS:          0
LLC WRITEBACK ACCESS:    1647341  HIT:          0  MISS:    1647341
LLC TRANSLATION ACCESS:        103  HIT:        103  MISS:          0
LLC PREFETCH  REQUESTED:          0  ISSUED:          0  USEFUL:          0  USELESS:          0
LLC AVERAGE MISS LATENCY: 148.612 cycles
LLC MSHR FULL EVENTS: 0 MSHR MERGE EVENTS: 0
blocks bypassed = 0
blocks filled to llc = 0

DRAM Statistics
 CHANNEL 0
 RQ ROW_BUFFER_HIT:       5715  ROW_BUFFER_MISS:      23085
 DBUS AVG_CONGESTED_CYCLE:    3.95184
 WQ ROW_BUFFER_HIT:          1  ROW_BUFFER_MISS:          3  FULL:          0


CPU 0 Branch Prediction Accuracy: 85.9714% MPKI: 31.4272 Average ROB Occupancy at Mispredict: 8.80233
Branch type MPKI
BRANCH_DIRECT_JUMP: 5e-05
BRANCH_INDIRECT: 1e-05
BRANCH_CONDITIONAL: 31.4268
BRANCH_DIRECT_CALL: 0.00012
BRANCH_INDIRECT_CALL: 2e-05
BRANCH_RETURN: 0.00012

