
*** ChampSim Multicore Out-of-Order Simulator ***

Warmup Instructions: 40000000
Simulation Instructions: 100000000
Number of CPUs: 1
Off-chip DRAM Size: 4 GiB Channels: 1 Width: 64-bit Data Rate: 3200 MT/s

VirtualMemory physical capacity: 4293914624 num_ppages: 1048319
VirtualMemory page size: 4096 log2_page_size: 12

CPU 0 runs ../../../../ICS/traces//Radii_36000M.champsim.xz
CPU 0 Bimodal branch predictor
Basic BTB sets: 1024 ways: 8 indirect buffer size: 4096 RAS size: 64
Heartbeat CPU 0 instructions: 10000000 cycles: 3369148 heartbeat IPC: 2.96811 cumulative IPC: 2.96811 (Simulation time: 0 hr 1 min 28 sec) 
Heartbeat CPU 0 instructions: 20000002 cycles: 6754470 heartbeat IPC: 2.95393 cumulative IPC: 2.961 (Simulation time: 0 hr 2 min 32 sec) 
Heartbeat CPU 0 instructions: 30000000 cycles: 10167992 heartbeat IPC: 2.92952 cumulative IPC: 2.95044 (Simulation time: 0 hr 3 min 35 sec) 
Heartbeat CPU 0 instructions: 40000000 cycles: 13584254 heartbeat IPC: 2.92718 cumulative IPC: 2.94459 (Simulation time: 0 hr 4 min 45 sec) 

Warmup complete CPU 0 instructions: 40000002 cycles: 13584255 (Simulation time: 0 hr 4 min 45 sec) 

Heartbeat CPU 0 instructions: 50000003 cycles: 46519385 heartbeat IPC: 0.303627 cumulative IPC: 0.303627 (Simulation time: 0 hr 6 min 23 sec) 
Heartbeat CPU 0 instructions: 60000003 cycles: 76875754 heartbeat IPC: 0.32942 cumulative IPC: 0.315998 (Simulation time: 0 hr 8 min 7 sec) 
Heartbeat CPU 0 instructions: 70000003 cycles: 111161163 heartbeat IPC: 0.291669 cumulative IPC: 0.30745 (Simulation time: 0 hr 9 min 52 sec) 
Heartbeat CPU 0 instructions: 80000004 cycles: 148216968 heartbeat IPC: 0.269863 cumulative IPC: 0.297105 (Simulation time: 0 hr 11 min 43 sec) 
Heartbeat CPU 0 instructions: 90000003 cycles: 185902441 heartbeat IPC: 0.265354 cumulative IPC: 0.290161 (Simulation time: 0 hr 13 min 24 sec) 
Heartbeat CPU 0 instructions: 100000004 cycles: 222483069 heartbeat IPC: 0.273369 cumulative IPC: 0.28722 (Simulation time: 0 hr 15 min 15 sec) 
Heartbeat CPU 0 instructions: 110000001 cycles: 258976848 heartbeat IPC: 0.274019 cumulative IPC: 0.285257 (Simulation time: 0 hr 16 min 58 sec) 
Heartbeat CPU 0 instructions: 120000002 cycles: 294228211 heartbeat IPC: 0.283677 cumulative IPC: 0.285059 (Simulation time: 0 hr 18 min 30 sec) 
Heartbeat CPU 0 instructions: 130000001 cycles: 327869324 heartbeat IPC: 0.297255 cumulative IPC: 0.286364 (Simulation time: 0 hr 20 min 10 sec) 
Heartbeat CPU 0 instructions: 140000002 cycles: 338541299 heartbeat IPC: 0.937034 cumulative IPC: 0.307733 (Simulation time: 0 hr 21 min 8 sec) 
Finished CPU 0 instructions: 100000000 cycles: 324957044 cumulative IPC: 0.307733 (Simulation time: 0 hr 21 min 8 sec) 

ChampSim completed all CPUs

Region of Interest Statistics

CPU 0 cumulative IPC: 0.307733 instructions: 100000000 cycles: 324957044
cpu0_DTLB TOTAL     ACCESS:   27846908  HIT:   25138291  MISS:    2708617
cpu0_DTLB LOAD      ACCESS:   23332140  HIT:   20644447  MISS:    2687693
cpu0_DTLB RFO       ACCESS:    4514768  HIT:    4493844  MISS:      20924
cpu0_DTLB PREFETCH  ACCESS:          0  HIT:          0  MISS:          0
cpu0_DTLB WRITEBACK ACCESS:          0  HIT:          0  MISS:          0
cpu0_DTLB TRANSLATION ACCESS:          0  HIT:          0  MISS:          0
cpu0_DTLB PREFETCH  REQUESTED:          0  ISSUED:          0  USEFUL:          0  USELESS:          0
cpu0_DTLB AVERAGE MISS LATENCY: 12.148 cycles
cpu0_DTLB MSHR FULL EVENTS: 26596 MSHR MERGE EVENTS: 121533
cpu0_ITLB TOTAL     ACCESS:   10157075  HIT:   10157069  MISS:          6
cpu0_ITLB LOAD      ACCESS:   10157075  HIT:   10157069  MISS:          6
cpu0_ITLB RFO       ACCESS:          0  HIT:          0  MISS:          0
cpu0_ITLB PREFETCH  ACCESS:          0  HIT:          0  MISS:          0
cpu0_ITLB WRITEBACK ACCESS:          0  HIT:          0  MISS:          0
cpu0_ITLB TRANSLATION ACCESS:          0  HIT:          0  MISS:          0
cpu0_ITLB PREFETCH  REQUESTED:          0  ISSUED:          0  USEFUL:          0  USELESS:          0
cpu0_ITLB AVERAGE MISS LATENCY: 253.167 cycles
cpu0_ITLB MSHR FULL EVENTS: 0 MSHR MERGE EVENTS: 0
cpu0_L1I TOTAL     ACCESS:        106  HIT:         55  MISS:         51
cpu0_L1I LOAD      ACCESS:        106  HIT:         55  MISS:         51
cpu0_L1I RFO       ACCESS:          0  HIT:          0  MISS:          0
cpu0_L1I PREFETCH  ACCESS:          0  HIT:          0  MISS:          0
cpu0_L1I WRITEBACK ACCESS:          0  HIT:          0  MISS:          0
cpu0_L1I TRANSLATION ACCESS:          0  HIT:          0  MISS:          0
cpu0_L1I PREFETCH  REQUESTED:          0  ISSUED:          0  USEFUL:          0  USELESS:          0
cpu0_L1I AVERAGE MISS LATENCY: 175.49 cycles
cpu0_L1I MSHR FULL EVENTS: 0 MSHR MERGE EVENTS: 0
cpu0_STLB TOTAL     ACCESS:    2708623  HIT:    2322720  MISS:     385903
cpu0_STLB LOAD      ACCESS:    2687699  HIT:    2305752  MISS:     381947
cpu0_STLB RFO       ACCESS:      20924  HIT:      16968  MISS:       3956
cpu0_STLB PREFETCH  ACCESS:          0  HIT:          0  MISS:          0
cpu0_STLB WRITEBACK ACCESS:          0  HIT:          0  MISS:          0
cpu0_STLB TRANSLATION ACCESS:          0  HIT:          0  MISS:          0
cpu0_STLB PREFETCH  REQUESTED:          0  ISSUED:          0  USEFUL:          0  USELESS:          0
cpu0_STLB AVERAGE MISS LATENCY: 22.4101 cycles
cpu0_STLB MSHR FULL EVENTS: 0 MSHR MERGE EVENTS: 0
cpu0_L1D TOTAL     ACCESS:   26202043  HIT:   21660146  MISS:    4541897
cpu0_L1D LOAD      ACCESS:   20948580  HIT:   16445240  MISS:    4503340
cpu0_L1D RFO       ACCESS:    4878502  HIT:    4850496  MISS:      28006
cpu0_L1D PREFETCH  ACCESS:          0  HIT:          0  MISS:          0
cpu0_L1D WRITEBACK ACCESS:          0  HIT:          0  MISS:          0
cpu0_L1D TRANSLATION ACCESS:     374961  HIT:     364410  MISS:      10551
cpu0_L1D PREFETCH  REQUESTED:          0  ISSUED:          0  USEFUL:          0  USELESS:          0
cpu0_L1D AVERAGE MISS LATENCY: 84.3418 cycles
cpu0_L1D MSHR FULL EVENTS: 39742 MSHR MERGE EVENTS: 1379430
cpu0_L2C TOTAL     ACCESS:    4828162  HIT:     896412  MISS:    3931741
cpu0_L2C LOAD      ACCESS:    4503391  HIT:     599896  MISS:    3903495
cpu0_L2C RFO       ACCESS:      28006  HIT:         11  MISS:      27995
cpu0_L2C PREFETCH  ACCESS:          0  HIT:          0  MISS:          0
cpu0_L2C WRITEBACK ACCESS:     286214  HIT:     286205  MISS:          9
cpu0_L2C TRANSLATION ACCESS:      10551  HIT:      10300  MISS:        251
cpu0_L2C PREFETCH  REQUESTED:          0  ISSUED:          0  USEFUL:          0  USELESS:          0
cpu0_L2C AVERAGE MISS LATENCY: 85.64 cycles
cpu0_L2C MSHR FULL EVENTS: 0 MSHR MERGE EVENTS: 0
LLC TOTAL     ACCESS:    7863487  HIT:    2295296  MISS:    1636445
LLC LOAD      ACCESS:    3903492  HIT:    2295047  MISS:    1608445
LLC RFO       ACCESS:      27995  HIT:          0  MISS:      27995
LLC PREFETCH  ACCESS:          0  HIT:          0  MISS:          0
LLC WRITEBACK ACCESS:    3931749  HIT:          3  MISS:    3931746
LLC TRANSLATION ACCESS:        251  HIT:        246  MISS:          5
LLC PREFETCH  REQUESTED:          0  ISSUED:          0  USEFUL:          0  USELESS:          0
LLC AVERAGE MISS LATENCY: 156.302 cycles
LLC MSHR FULL EVENTS: 0 MSHR MERGE EVENTS: 0
blocks bypassed = 0
blocks filled to llc = 0

DRAM Statistics
 CHANNEL 0
 RQ ROW_BUFFER_HIT:     207742  ROW_BUFFER_MISS:    1428703
 DBUS AVG_CONGESTED_CYCLE:    3.57688
 WQ ROW_BUFFER_HIT:      28285  ROW_BUFFER_MISS:      19435  FULL:          0


CPU 0 Branch Prediction Accuracy: 85.1756% MPKI: 36.0741 Average ROB Occupancy at Mispredict: 26.2505
Branch type MPKI
BRANCH_DIRECT_JUMP: 9e-05
BRANCH_INDIRECT: 0
BRANCH_CONDITIONAL: 36.0739
BRANCH_DIRECT_CALL: 7e-05
BRANCH_INDIRECT_CALL: 0
BRANCH_RETURN: 6e-05

