
*** ChampSim Multicore Out-of-Order Simulator ***

Warmup Instructions: 40000000
Simulation Instructions: 100000000
Number of CPUs: 1
Off-chip DRAM Size: 4 GiB Channels: 1 Width: 64-bit Data Rate: 3200 MT/s

VirtualMemory physical capacity: 4293914624 num_ppages: 1048319
VirtualMemory page size: 4096 log2_page_size: 12

CPU 0 runs ../../../../ICS/traces//BFSCC_22000M.champsim.xz
CPU 0 Bimodal branch predictor
Basic BTB sets: 1024 ways: 8 indirect buffer size: 4096 RAS size: 64
Heartbeat CPU 0 instructions: 10000004 cycles: 2911402 heartbeat IPC: 3.43477 cumulative IPC: 3.43477 (Simulation time: 0 hr 0 min 53 sec) 
Heartbeat CPU 0 instructions: 20000000 cycles: 5861154 heartbeat IPC: 3.39011 cumulative IPC: 3.4123 (Simulation time: 0 hr 1 min 43 sec) 
Heartbeat CPU 0 instructions: 30000000 cycles: 8722341 heartbeat IPC: 3.49505 cumulative IPC: 3.43944 (Simulation time: 0 hr 2 min 36 sec) 
Heartbeat CPU 0 instructions: 40000000 cycles: 11531423 heartbeat IPC: 3.55988 cumulative IPC: 3.46878 (Simulation time: 0 hr 3 min 29 sec) 

Warmup complete CPU 0 instructions: 40000001 cycles: 11531424 (Simulation time: 0 hr 3 min 29 sec) 

Heartbeat CPU 0 instructions: 50000002 cycles: 30018972 heartbeat IPC: 0.540905 cumulative IPC: 0.540905 (Simulation time: 0 hr 5 min 1 sec) 
Heartbeat CPU 0 instructions: 60000004 cycles: 47708834 heartbeat IPC: 0.565296 cumulative IPC: 0.552831 (Simulation time: 0 hr 6 min 22 sec) 
Heartbeat CPU 0 instructions: 70000003 cycles: 63932781 heartbeat IPC: 0.616373 cumulative IPC: 0.572504 (Simulation time: 0 hr 7 min 47 sec) 
Heartbeat CPU 0 instructions: 80000003 cycles: 75093547 heartbeat IPC: 0.895996 cumulative IPC: 0.629306 (Simulation time: 0 hr 8 min 59 sec) 
Heartbeat CPU 0 instructions: 90000001 cycles: 78047700 heartbeat IPC: 3.38506 cumulative IPC: 0.751696 (Simulation time: 0 hr 9 min 48 sec) 
Heartbeat CPU 0 instructions: 100000003 cycles: 80602157 heartbeat IPC: 3.91473 cumulative IPC: 0.868675 (Simulation time: 0 hr 10 min 27 sec) 
Heartbeat CPU 0 instructions: 110000002 cycles: 83138023 heartbeat IPC: 3.94343 cumulative IPC: 0.977564 (Simulation time: 0 hr 11 min 3 sec) 
Heartbeat CPU 0 instructions: 120000002 cycles: 87763819 heartbeat IPC: 2.16179 cumulative IPC: 1.04942 (Simulation time: 0 hr 11 min 42 sec) 
Heartbeat CPU 0 instructions: 130000000 cycles: 96514755 heartbeat IPC: 1.14273 cumulative IPC: 1.05903 (Simulation time: 0 hr 12 min 17 sec) 
Heartbeat CPU 0 instructions: 140000001 cycles: 102306696 heartbeat IPC: 1.72654 cumulative IPC: 1.10162 (Simulation time: 0 hr 12 min 49 sec) 
Finished CPU 0 instructions: 100000000 cycles: 90775272 cumulative IPC: 1.10162 (Simulation time: 0 hr 12 min 49 sec) 

ChampSim completed all CPUs

Region of Interest Statistics

CPU 0 cumulative IPC: 1.10162 instructions: 100000000 cycles: 90775272
cpu0_DTLB TOTAL     ACCESS:   16094872  HIT:   15334224  MISS:     760648
cpu0_DTLB LOAD      ACCESS:   14510439  HIT:   13750866  MISS:     759573
cpu0_DTLB RFO       ACCESS:    1584433  HIT:    1583358  MISS:       1075
cpu0_DTLB PREFETCH  ACCESS:          0  HIT:          0  MISS:          0
cpu0_DTLB WRITEBACK ACCESS:          0  HIT:          0  MISS:          0
cpu0_DTLB TRANSLATION ACCESS:          0  HIT:          0  MISS:          0
cpu0_DTLB PREFETCH  REQUESTED:          0  ISSUED:          0  USEFUL:          0  USELESS:          0
cpu0_DTLB AVERAGE MISS LATENCY: 11.9064 cycles
cpu0_DTLB MSHR FULL EVENTS: 0 MSHR MERGE EVENTS: 148842
cpu0_ITLB TOTAL     ACCESS:    8756030  HIT:    8756021  MISS:          9
cpu0_ITLB LOAD      ACCESS:    8756030  HIT:    8756021  MISS:          9
cpu0_ITLB RFO       ACCESS:          0  HIT:          0  MISS:          0
cpu0_ITLB PREFETCH  ACCESS:          0  HIT:          0  MISS:          0
cpu0_ITLB WRITEBACK ACCESS:          0  HIT:          0  MISS:          0
cpu0_ITLB TRANSLATION ACCESS:          0  HIT:          0  MISS:          0
cpu0_ITLB PREFETCH  REQUESTED:          0  ISSUED:          0  USEFUL:          0  USELESS:          0
cpu0_ITLB AVERAGE MISS LATENCY: 247.667 cycles
cpu0_ITLB MSHR FULL EVENTS: 0 MSHR MERGE EVENTS: 0
cpu0_L1I TOTAL     ACCESS:        269  HIT:        154  MISS:        115
cpu0_L1I LOAD      ACCESS:        269  HIT:        154  MISS:        115
cpu0_L1I RFO       ACCESS:          0  HIT:          0  MISS:          0
cpu0_L1I PREFETCH  ACCESS:          0  HIT:          0  MISS:          0
cpu0_L1I WRITEBACK ACCESS:          0  HIT:          0  MISS:          0
cpu0_L1I TRANSLATION ACCESS:          0  HIT:          0  MISS:          0
cpu0_L1I PREFETCH  REQUESTED:          0  ISSUED:          0  USEFUL:          0  USELESS:          0
cpu0_L1I AVERAGE MISS LATENCY: 172.47 cycles
cpu0_L1I MSHR FULL EVENTS: 0 MSHR MERGE EVENTS: 1
cpu0_STLB TOTAL     ACCESS:     760657  HIT:     749334  MISS:      11323
cpu0_STLB LOAD      ACCESS:     759582  HIT:     748903  MISS:      10679
cpu0_STLB RFO       ACCESS:       1075  HIT:        431  MISS:        644
cpu0_STLB PREFETCH  ACCESS:          0  HIT:          0  MISS:          0
cpu0_STLB WRITEBACK ACCESS:          0  HIT:          0  MISS:          0
cpu0_STLB TRANSLATION ACCESS:          0  HIT:          0  MISS:          0
cpu0_STLB PREFETCH  REQUESTED:          0  ISSUED:          0  USEFUL:          0  USELESS:          0
cpu0_STLB AVERAGE MISS LATENCY: 195.815 cycles
cpu0_STLB MSHR FULL EVENTS: 0 MSHR MERGE EVENTS: 0
cpu0_L1D TOTAL     ACCESS:    9563080  HIT:    7835443  MISS:    1727637
cpu0_L1D LOAD      ACCESS:    8118545  HIT:    6446197  MISS:    1672348
cpu0_L1D RFO       ACCESS:    1433212  HIT:    1380276  MISS:      52936
cpu0_L1D PREFETCH  ACCESS:          0  HIT:          0  MISS:          0
cpu0_L1D WRITEBACK ACCESS:          0  HIT:          0  MISS:          0
cpu0_L1D TRANSLATION ACCESS:      11323  HIT:       8970  MISS:       2353
cpu0_L1D PREFETCH  REQUESTED:          0  ISSUED:          0  USEFUL:          0  USELESS:          0
cpu0_L1D AVERAGE MISS LATENCY: 82.8597 cycles
cpu0_L1D MSHR FULL EVENTS: 1711 MSHR MERGE EVENTS: 2524028
cpu0_L2C TOTAL     ACCESS:    1796848  HIT:     257051  MISS:    1539797
cpu0_L2C LOAD      ACCESS:    1672463  HIT:     185599  MISS:    1486864
cpu0_L2C RFO       ACCESS:      52936  HIT:         26  MISS:      52910
cpu0_L2C PREFETCH  ACCESS:          0  HIT:          0  MISS:          0
cpu0_L2C WRITEBACK ACCESS:      69096  HIT:      69096  MISS:          0
cpu0_L2C TRANSLATION ACCESS:       2353  HIT:       2330  MISS:         23
cpu0_L2C PREFETCH  REQUESTED:          0  ISSUED:          0  USEFUL:          0  USELESS:          0
cpu0_L2C AVERAGE MISS LATENCY: 81.6259 cycles
cpu0_L2C MSHR FULL EVENTS: 0 MSHR MERGE EVENTS: 0
LLC TOTAL     ACCESS:    3079593  HIT:     870565  MISS:     669232
LLC LOAD      ACCESS:    1486863  HIT:     842929  MISS:     643934
LLC RFO       ACCESS:      52910  HIT:      27615  MISS:      25295
LLC PREFETCH  ACCESS:          0  HIT:          0  MISS:          0
LLC WRITEBACK ACCESS:    1539797  HIT:          1  MISS:    1539796
LLC TRANSLATION ACCESS:         23  HIT:         20  MISS:          3
LLC PREFETCH  REQUESTED:          0  ISSUED:          0  USEFUL:          0  USELESS:          0
LLC AVERAGE MISS LATENCY: 140.483 cycles
LLC MSHR FULL EVENTS: 0 MSHR MERGE EVENTS: 0
blocks bypassed = 0
blocks filled to llc = 0

DRAM Statistics
 CHANNEL 0
 RQ ROW_BUFFER_HIT:     213261  ROW_BUFFER_MISS:     455971
 DBUS AVG_CONGESTED_CYCLE:    3.57879
 WQ ROW_BUFFER_HIT:        363  ROW_BUFFER_MISS:         90  FULL:          0


CPU 0 Branch Prediction Accuracy: 94.0529% MPKI: 14.8888 Average ROB Occupancy at Mispredict: 70.5226
Branch type MPKI
BRANCH_DIRECT_JUMP: 0.00024
BRANCH_INDIRECT: 0
BRANCH_CONDITIONAL: 14.8882
BRANCH_DIRECT_CALL: 0.00017
BRANCH_INDIRECT_CALL: 0
BRANCH_RETURN: 0.00017

