
*** ChampSim Multicore Out-of-Order Simulator ***

Warmup Instructions: 40000000
Simulation Instructions: 100000000
Number of CPUs: 1
Off-chip DRAM Size: 4 GiB Channels: 1 Width: 64-bit Data Rate: 3200 MT/s

VirtualMemory physical capacity: 4293914624 num_ppages: 1048319
VirtualMemory page size: 4096 log2_page_size: 12

CPU 0 runs ../../../../ICS/traces//bc-3.trace.gz
CPU 0 Bimodal branch predictor
Basic BTB sets: 1024 ways: 8 indirect buffer size: 4096 RAS size: 64
Heartbeat CPU 0 instructions: 10000000 cycles: 3274526 heartbeat IPC: 3.05388 cumulative IPC: 3.05388 (Simulation time: 0 hr 1 min 3 sec) 
Heartbeat CPU 0 instructions: 20000000 cycles: 5777967 heartbeat IPC: 3.9945 cumulative IPC: 3.46143 (Simulation time: 0 hr 1 min 39 sec) 
Heartbeat CPU 0 instructions: 30000000 cycles: 8280031 heartbeat IPC: 3.9967 cumulative IPC: 3.62317 (Simulation time: 0 hr 2 min 31 sec) 
Heartbeat CPU 0 instructions: 40000002 cycles: 10781406 heartbeat IPC: 3.9978 cumulative IPC: 3.71009 (Simulation time: 0 hr 3 min 19 sec) 

Warmup complete CPU 0 instructions: 40000002 cycles: 10781406 (Simulation time: 0 hr 3 min 19 sec) 

Heartbeat CPU 0 instructions: 50000000 cycles: 34370506 heartbeat IPC: 0.423925 cumulative IPC: 0.423925 (Simulation time: 0 hr 4 min 36 sec) 
Heartbeat CPU 0 instructions: 60000001 cycles: 57864422 heartbeat IPC: 0.425642 cumulative IPC: 0.424782 (Simulation time: 0 hr 5 min 55 sec) 
Heartbeat CPU 0 instructions: 70000000 cycles: 81369683 heartbeat IPC: 0.425437 cumulative IPC: 0.425 (Simulation time: 0 hr 7 min 12 sec) 
Heartbeat CPU 0 instructions: 80000000 cycles: 104876716 heartbeat IPC: 0.425405 cumulative IPC: 0.425101 (Simulation time: 0 hr 8 min 31 sec) 
Heartbeat CPU 0 instructions: 90000000 cycles: 128273671 heartbeat IPC: 0.427406 cumulative IPC: 0.42556 (Simulation time: 0 hr 9 min 50 sec) 
Heartbeat CPU 0 instructions: 100000004 cycles: 151571026 heartbeat IPC: 0.429233 cumulative IPC: 0.426168 (Simulation time: 0 hr 11 min 7 sec) 
Heartbeat CPU 0 instructions: 110000002 cycles: 174897497 heartbeat IPC: 0.428697 cumulative IPC: 0.426527 (Simulation time: 0 hr 12 min 27 sec) 
Heartbeat CPU 0 instructions: 120000000 cycles: 198144409 heartbeat IPC: 0.430165 cumulative IPC: 0.426979 (Simulation time: 0 hr 13 min 37 sec) 
Heartbeat CPU 0 instructions: 130000002 cycles: 221381042 heartbeat IPC: 0.430355 cumulative IPC: 0.427351 (Simulation time: 0 hr 14 min 54 sec) 
Heartbeat CPU 0 instructions: 140000001 cycles: 244655778 heartbeat IPC: 0.42965 cumulative IPC: 0.42758 (Simulation time: 0 hr 16 min 8 sec) 
Finished CPU 0 instructions: 100000004 cycles: 233874373 cumulative IPC: 0.42758 (Simulation time: 0 hr 16 min 8 sec) 

ChampSim completed all CPUs

Region of Interest Statistics

CPU 0 cumulative IPC: 0.42758 instructions: 100000004 cycles: 233874373
cpu0_DTLB TOTAL     ACCESS:   20569161  HIT:   16720129  MISS:    3849032
cpu0_DTLB LOAD      ACCESS:   17170629  HIT:   14378326  MISS:    2792303
cpu0_DTLB RFO       ACCESS:    3398532  HIT:    2341803  MISS:    1056729
cpu0_DTLB PREFETCH  ACCESS:          0  HIT:          0  MISS:          0
cpu0_DTLB WRITEBACK ACCESS:          0  HIT:          0  MISS:          0
cpu0_DTLB TRANSLATION ACCESS:          0  HIT:          0  MISS:          0
cpu0_DTLB PREFETCH  REQUESTED:          0  ISSUED:          0  USEFUL:          0  USELESS:          0
cpu0_DTLB AVERAGE MISS LATENCY: 11.9877 cycles
cpu0_DTLB MSHR FULL EVENTS: 43272 MSHR MERGE EVENTS: 660307
cpu0_ITLB TOTAL     ACCESS:   13125210  HIT:   13125210  MISS:          0
cpu0_ITLB LOAD      ACCESS:   13125210  HIT:   13125210  MISS:          0
cpu0_ITLB RFO       ACCESS:          0  HIT:          0  MISS:          0
cpu0_ITLB PREFETCH  ACCESS:          0  HIT:          0  MISS:          0
cpu0_ITLB WRITEBACK ACCESS:          0  HIT:          0  MISS:          0
cpu0_ITLB TRANSLATION ACCESS:          0  HIT:          0  MISS:          0
cpu0_ITLB PREFETCH  REQUESTED:          0  ISSUED:          0  USEFUL:          0  USELESS:          0
cpu0_ITLB AVERAGE MISS LATENCY: -nan cycles
cpu0_ITLB MSHR FULL EVENTS: 0 MSHR MERGE EVENTS: 0
cpu0_L1I TOTAL     ACCESS:        204  HIT:        204  MISS:          0
cpu0_L1I LOAD      ACCESS:        204  HIT:        204  MISS:          0
cpu0_L1I RFO       ACCESS:          0  HIT:          0  MISS:          0
cpu0_L1I PREFETCH  ACCESS:          0  HIT:          0  MISS:          0
cpu0_L1I WRITEBACK ACCESS:          0  HIT:          0  MISS:          0
cpu0_L1I TRANSLATION ACCESS:          0  HIT:          0  MISS:          0
cpu0_L1I PREFETCH  REQUESTED:          0  ISSUED:          0  USEFUL:          0  USELESS:          0
cpu0_L1I AVERAGE MISS LATENCY: -nan cycles
cpu0_L1I MSHR FULL EVENTS: 0 MSHR MERGE EVENTS: 0
cpu0_STLB TOTAL     ACCESS:    3849032  HIT:    2685300  MISS:    1163732
cpu0_STLB LOAD      ACCESS:    2792303  HIT:    2280713  MISS:     511590
cpu0_STLB RFO       ACCESS:    1056729  HIT:     404587  MISS:     652142
cpu0_STLB PREFETCH  ACCESS:          0  HIT:          0  MISS:          0
cpu0_STLB WRITEBACK ACCESS:          0  HIT:          0  MISS:          0
cpu0_STLB TRANSLATION ACCESS:          0  HIT:          0  MISS:          0
cpu0_STLB PREFETCH  REQUESTED:          0  ISSUED:          0  USEFUL:          0  USELESS:          0
cpu0_STLB AVERAGE MISS LATENCY: 10.4276 cycles
cpu0_STLB MSHR FULL EVENTS: 0 MSHR MERGE EVENTS: 0
cpu0_L1D TOTAL     ACCESS:   23485704  HIT:   14669860  MISS:    8815844
cpu0_L1D LOAD      ACCESS:   18816375  HIT:   10030554  MISS:    8785821
cpu0_L1D RFO       ACCESS:    3542832  HIT:    3519003  MISS:      23829
cpu0_L1D PREFETCH  ACCESS:          0  HIT:          0  MISS:          0
cpu0_L1D WRITEBACK ACCESS:          0  HIT:          0  MISS:          0
cpu0_L1D TRANSLATION ACCESS:    1126497  HIT:    1120303  MISS:       6194
cpu0_L1D PREFETCH  REQUESTED:          0  ISSUED:          0  USEFUL:          0  USELESS:          0
cpu0_L1D AVERAGE MISS LATENCY: 29.5824 cycles
cpu0_L1D MSHR FULL EVENTS: 215106 MSHR MERGE EVENTS: 550002
cpu0_L2C TOTAL     ACCESS:   10608808  HIT:    4507372  MISS:    6101367
cpu0_L2C LOAD      ACCESS:    8785821  HIT:    2708228  MISS:    6077593
cpu0_L2C RFO       ACCESS:      23829  HIT:        320  MISS:      23509
cpu0_L2C PREFETCH  ACCESS:          0  HIT:          0  MISS:          0
cpu0_L2C WRITEBACK ACCESS:    1792964  HIT:    1792895  MISS:         69
cpu0_L2C TRANSLATION ACCESS:       6194  HIT:       5929  MISS:        265
cpu0_L2C PREFETCH  REQUESTED:          0  ISSUED:          0  USEFUL:          0  USELESS:          0
cpu0_L2C AVERAGE MISS LATENCY: 27.4286 cycles
cpu0_L2C MSHR FULL EVENTS: 0 MSHR MERGE EVENTS: 0
LLC TOTAL     ACCESS:   12202780  HIT:    5636853  MISS:     464514
LLC LOAD      ACCESS:    6077576  HIT:    5625350  MISS:     452226
LLC RFO       ACCESS:      23509  HIT:      11221  MISS:      12288
LLC PREFETCH  ACCESS:          0  HIT:          0  MISS:          0
LLC WRITEBACK ACCESS:    6101430  HIT:         17  MISS:    6101413
LLC TRANSLATION ACCESS:        265  HIT:        265  MISS:          0
LLC PREFETCH  REQUESTED:          0  ISSUED:          0  USEFUL:          0  USELESS:          0
LLC AVERAGE MISS LATENCY: 85.4402 cycles
LLC MSHR FULL EVENTS: 0 MSHR MERGE EVENTS: 0
blocks bypassed = 0
blocks filled to llc = 0

DRAM Statistics
 CHANNEL 0
 RQ ROW_BUFFER_HIT:     363918  ROW_BUFFER_MISS:     100596
 DBUS AVG_CONGESTED_CYCLE:    3.95637
 WQ ROW_BUFFER_HIT:         25  ROW_BUFFER_MISS:        119  FULL:          0


CPU 0 Branch Prediction Accuracy: 86.6685% MPKI: 28.5131 Average ROB Occupancy at Mispredict: 23.0475
Branch type MPKI
BRANCH_DIRECT_JUMP: 0
BRANCH_INDIRECT: 0
BRANCH_CONDITIONAL: 28.5131
BRANCH_DIRECT_CALL: 0
BRANCH_INDIRECT_CALL: 0
BRANCH_RETURN: 0

