
*** ChampSim Multicore Out-of-Order Simulator ***

Warmup Instructions: 40000000
Simulation Instructions: 100000000
Number of CPUs: 1
Off-chip DRAM Size: 4 GiB Channels: 1 Width: 64-bit Data Rate: 3200 MT/s

VirtualMemory physical capacity: 4293914624 num_ppages: 1048319
VirtualMemory page size: 4096 log2_page_size: 12

CPU 0 runs ../../../../ICS/traces//Radii_25000M.champsim.xz
CPU 0 Bimodal branch predictor
Basic BTB sets: 1024 ways: 8 indirect buffer size: 4096 RAS size: 64
Heartbeat CPU 0 instructions: 10000000 cycles: 2714989 heartbeat IPC: 3.68326 cumulative IPC: 3.68326 (Simulation time: 0 hr 0 min 47 sec) 
Heartbeat CPU 0 instructions: 20000000 cycles: 5638492 heartbeat IPC: 3.42055 cumulative IPC: 3.54705 (Simulation time: 0 hr 1 min 47 sec) 
Heartbeat CPU 0 instructions: 30000004 cycles: 8596724 heartbeat IPC: 3.3804 cumulative IPC: 3.4897 (Simulation time: 0 hr 2 min 54 sec) 
Heartbeat CPU 0 instructions: 40000002 cycles: 11554678 heartbeat IPC: 3.38071 cumulative IPC: 3.4618 (Simulation time: 0 hr 3 min 27 sec) 

Warmup complete CPU 0 instructions: 40000002 cycles: 11554678 (Simulation time: 0 hr 3 min 27 sec) 

Heartbeat CPU 0 instructions: 50000003 cycles: 28548572 heartbeat IPC: 0.588447 cumulative IPC: 0.588447 (Simulation time: 0 hr 6 min 19 sec) 
Heartbeat CPU 0 instructions: 60000001 cycles: 52884275 heartbeat IPC: 0.410919 cumulative IPC: 0.483915 (Simulation time: 0 hr 7 min 59 sec) 
Heartbeat CPU 0 instructions: 70000003 cycles: 72798856 heartbeat IPC: 0.502145 cumulative IPC: 0.489843 (Simulation time: 0 hr 9 min 24 sec) 
Heartbeat CPU 0 instructions: 80000000 cycles: 84805954 heartbeat IPC: 0.83284 cumulative IPC: 0.546066 (Simulation time: 0 hr 11 min 6 sec) 
Heartbeat CPU 0 instructions: 90000001 cycles: 104459026 heartbeat IPC: 0.508826 cumulative IPC: 0.538188 (Simulation time: 0 hr 12 min 46 sec) 
Heartbeat CPU 0 instructions: 100000000 cycles: 123537727 heartbeat IPC: 0.524145 cumulative IPC: 0.535795 (Simulation time: 0 hr 14 min 1 sec) 
Heartbeat CPU 0 instructions: 110000001 cycles: 135698052 heartbeat IPC: 0.822347 cumulative IPC: 0.563864 (Simulation time: 0 hr 15 min 41 sec) 
Heartbeat CPU 0 instructions: 120000004 cycles: 154699900 heartbeat IPC: 0.526265 cumulative IPC: 0.558873 (Simulation time: 0 hr 16 min 56 sec) 
Heartbeat CPU 0 instructions: 130000001 cycles: 169587846 heartbeat IPC: 0.671684 cumulative IPC: 0.569501 (Simulation time: 0 hr 17 min 54 sec) 
Heartbeat CPU 0 instructions: 140000000 cycles: 186257190 heartbeat IPC: 0.599904 cumulative IPC: 0.572402 (Simulation time: 0 hr 19 min 33 sec) 
Finished CPU 0 instructions: 100000003 cycles: 174702513 cumulative IPC: 0.572402 (Simulation time: 0 hr 19 min 33 sec) 

ChampSim completed all CPUs

Region of Interest Statistics

CPU 0 cumulative IPC: 0.572402 instructions: 100000003 cycles: 174702513
cpu0_DTLB TOTAL     ACCESS:   25171950  HIT:   22382987  MISS:    2788963
cpu0_DTLB LOAD      ACCESS:   18166879  HIT:   15774430  MISS:    2392449
cpu0_DTLB RFO       ACCESS:    7005071  HIT:    6608557  MISS:     396514
cpu0_DTLB PREFETCH  ACCESS:          0  HIT:          0  MISS:          0
cpu0_DTLB WRITEBACK ACCESS:          0  HIT:          0  MISS:          0
cpu0_DTLB TRANSLATION ACCESS:          0  HIT:          0  MISS:          0
cpu0_DTLB PREFETCH  REQUESTED:          0  ISSUED:          0  USEFUL:          0  USELESS:          0
cpu0_DTLB AVERAGE MISS LATENCY: 19.4074 cycles
cpu0_DTLB MSHR FULL EVENTS: 1385837 MSHR MERGE EVENTS: 482655
cpu0_ITLB TOTAL     ACCESS:    8142477  HIT:    8142476  MISS:          1
cpu0_ITLB LOAD      ACCESS:    8142477  HIT:    8142476  MISS:          1
cpu0_ITLB RFO       ACCESS:          0  HIT:          0  MISS:          0
cpu0_ITLB PREFETCH  ACCESS:          0  HIT:          0  MISS:          0
cpu0_ITLB WRITEBACK ACCESS:          0  HIT:          0  MISS:          0
cpu0_ITLB TRANSLATION ACCESS:          0  HIT:          0  MISS:          0
cpu0_ITLB PREFETCH  REQUESTED:          0  ISSUED:          0  USEFUL:          0  USELESS:          0
cpu0_ITLB AVERAGE MISS LATENCY: 247 cycles
cpu0_ITLB MSHR FULL EVENTS: 0 MSHR MERGE EVENTS: 0
cpu0_L1I TOTAL     ACCESS:       1201  HIT:       1172  MISS:         29
cpu0_L1I LOAD      ACCESS:       1201  HIT:       1172  MISS:         29
cpu0_L1I RFO       ACCESS:          0  HIT:          0  MISS:          0
cpu0_L1I PREFETCH  ACCESS:          0  HIT:          0  MISS:          0
cpu0_L1I WRITEBACK ACCESS:          0  HIT:          0  MISS:          0
cpu0_L1I TRANSLATION ACCESS:          0  HIT:          0  MISS:          0
cpu0_L1I PREFETCH  REQUESTED:          0  ISSUED:          0  USEFUL:          0  USELESS:          0
cpu0_L1I AVERAGE MISS LATENCY: 182.414 cycles
cpu0_L1I MSHR FULL EVENTS: 0 MSHR MERGE EVENTS: 0
cpu0_STLB TOTAL     ACCESS:    2788964  HIT:     541980  MISS:    2246984
cpu0_STLB LOAD      ACCESS:    2392450  HIT:     461492  MISS:    1930958
cpu0_STLB RFO       ACCESS:     396514  HIT:      80488  MISS:     316026
cpu0_STLB PREFETCH  ACCESS:          0  HIT:          0  MISS:          0
cpu0_STLB WRITEBACK ACCESS:          0  HIT:          0  MISS:          0
cpu0_STLB TRANSLATION ACCESS:          0  HIT:          0  MISS:          0
cpu0_STLB PREFETCH  REQUESTED:          0  ISSUED:          0  USEFUL:          0  USELESS:          0
cpu0_STLB AVERAGE MISS LATENCY: 13.8933 cycles
cpu0_STLB MSHR FULL EVENTS: 0 MSHR MERGE EVENTS: 0
cpu0_L1D TOTAL     ACCESS:   24671489  HIT:   19638993  MISS:    5032496
cpu0_L1D LOAD      ACCESS:   15399740  HIT:   11357693  MISS:    4042047
cpu0_L1D RFO       ACCESS:    7417455  HIT:    6430948  MISS:     986507
cpu0_L1D PREFETCH  ACCESS:          0  HIT:          0  MISS:          0
cpu0_L1D WRITEBACK ACCESS:          0  HIT:          0  MISS:          0
cpu0_L1D TRANSLATION ACCESS:    1854294  HIT:    1850352  MISS:       3942
cpu0_L1D PREFETCH  REQUESTED:          0  ISSUED:          0  USEFUL:          0  USELESS:          0
cpu0_L1D AVERAGE MISS LATENCY: 97.2726 cycles
cpu0_L1D MSHR FULL EVENTS: 11945519 MSHR MERGE EVENTS: 4000151
cpu0_L2C TOTAL     ACCESS:    6819500  HIT:    1991671  MISS:    4827818
cpu0_L2C LOAD      ACCESS:    4042076  HIT:     185759  MISS:    3856317
cpu0_L2C RFO       ACCESS:     986495  HIT:      15340  MISS:     971155
cpu0_L2C PREFETCH  ACCESS:          0  HIT:          0  MISS:          0
cpu0_L2C WRITEBACK ACCESS:    1786987  HIT:    1786976  MISS:         11
cpu0_L2C TRANSLATION ACCESS:       3942  HIT:       3596  MISS:        346
cpu0_L2C PREFETCH  REQUESTED:          0  ISSUED:          0  USEFUL:          0  USELESS:          0
cpu0_L2C AVERAGE MISS LATENCY: 90.8693 cycles
cpu0_L2C MSHR FULL EVENTS: 0 MSHR MERGE EVENTS: 0
LLC TOTAL     ACCESS:    9655622  HIT:    3947625  MISS:     880193
LLC LOAD      ACCESS:    3856304  HIT:    2996009  MISS:     860295
LLC RFO       ACCESS:     971143  HIT:     951248  MISS:      19895
LLC PREFETCH  ACCESS:          0  HIT:          0  MISS:          0
LLC WRITEBACK ACCESS:    4827829  HIT:         25  MISS:    4827804
LLC TRANSLATION ACCESS:        346  HIT:        343  MISS:          3
LLC PREFETCH  REQUESTED:          0  ISSUED:          0  USEFUL:          0  USELESS:          0
LLC AVERAGE MISS LATENCY: 384.224 cycles
LLC MSHR FULL EVENTS: 0 MSHR MERGE EVENTS: 0
blocks bypassed = 0
blocks filled to llc = 0

DRAM Statistics
 CHANNEL 0
 RQ ROW_BUFFER_HIT:      41147  ROW_BUFFER_MISS:     839046
 DBUS AVG_CONGESTED_CYCLE:    3.90417
 WQ ROW_BUFFER_HIT:       1378  ROW_BUFFER_MISS:       9210  FULL:          0


CPU 0 Branch Prediction Accuracy: 88.5322% MPKI: 18.7745 Average ROB Occupancy at Mispredict: 31.753
Branch type MPKI
BRANCH_DIRECT_JUMP: 0.0001
BRANCH_INDIRECT: 0
BRANCH_CONDITIONAL: 18.7742
BRANCH_DIRECT_CALL: 9e-05
BRANCH_INDIRECT_CALL: 0
BRANCH_RETURN: 0.00011

