
*** ChampSim Multicore Out-of-Order Simulator ***

Warmup Instructions: 40000000
Simulation Instructions: 100000000
Number of CPUs: 1
Off-chip DRAM Size: 4 GiB Channels: 1 Width: 64-bit Data Rate: 3200 MT/s

VirtualMemory physical capacity: 4293914624 num_ppages: 1048319
VirtualMemory page size: 4096 log2_page_size: 12

CPU 0 runs ../../../../ICS/traces//PageRankDelta_35250M.champsim.xz
CPU 0 Bimodal branch predictor
Basic BTB sets: 1024 ways: 8 indirect buffer size: 4096 RAS size: 64
Heartbeat CPU 0 instructions: 10000000 cycles: 2500056 heartbeat IPC: 3.99991 cumulative IPC: 3.99991 (Simulation time: 0 hr 0 min 38 sec) 
Heartbeat CPU 0 instructions: 20000000 cycles: 5000056 heartbeat IPC: 4 cumulative IPC: 3.99996 (Simulation time: 0 hr 1 min 9 sec) 
Heartbeat CPU 0 instructions: 30000000 cycles: 7500056 heartbeat IPC: 4 cumulative IPC: 3.99997 (Simulation time: 0 hr 1 min 44 sec) 
Heartbeat CPU 0 instructions: 40000000 cycles: 10000056 heartbeat IPC: 4 cumulative IPC: 3.99998 (Simulation time: 0 hr 2 min 28 sec) 

Warmup complete CPU 0 instructions: 40000004 cycles: 10000057 (Simulation time: 0 hr 2 min 28 sec) 

Heartbeat CPU 0 instructions: 50000003 cycles: 33542436 heartbeat IPC: 0.424766 cumulative IPC: 0.424766 (Simulation time: 0 hr 3 min 56 sec) 
Heartbeat CPU 0 instructions: 60000003 cycles: 47826204 heartbeat IPC: 0.700095 cumulative IPC: 0.528735 (Simulation time: 0 hr 5 min 4 sec) 
Heartbeat CPU 0 instructions: 70000001 cycles: 50546719 heartbeat IPC: 3.67577 cumulative IPC: 0.739888 (Simulation time: 0 hr 5 min 45 sec) 
Heartbeat CPU 0 instructions: 80000000 cycles: 60041411 heartbeat IPC: 1.05322 cumulative IPC: 0.799339 (Simulation time: 0 hr 7 min 35 sec) 
Heartbeat CPU 0 instructions: 90000002 cycles: 64542311 heartbeat IPC: 2.22178 cumulative IPC: 0.91672 (Simulation time: 0 hr 8 min 45 sec) 
Heartbeat CPU 0 instructions: 100000002 cycles: 96563268 heartbeat IPC: 0.312295 cumulative IPC: 0.693135 (Simulation time: 0 hr 13 min 33 sec) 
Heartbeat CPU 0 instructions: 110000001 cycles: 117132585 heartbeat IPC: 0.486161 cumulative IPC: 0.653396 (Simulation time: 0 hr 16 min 39 sec) 
Heartbeat CPU 0 instructions: 120000001 cycles: 120317622 heartbeat IPC: 3.13968 cumulative IPC: 0.725179 (Simulation time: 0 hr 17 min 25 sec) 
Heartbeat CPU 0 instructions: 130000002 cycles: 123192044 heartbeat IPC: 3.47896 cumulative IPC: 0.795109 (Simulation time: 0 hr 18 min 10 sec) 
Heartbeat CPU 0 instructions: 140000002 cycles: 125887481 heartbeat IPC: 3.70997 cumulative IPC: 0.862906 (Simulation time: 0 hr 18 min 43 sec) 
Finished CPU 0 instructions: 100000003 cycles: 115887425 cumulative IPC: 0.862906 (Simulation time: 0 hr 18 min 43 sec) 

ChampSim completed all CPUs

Region of Interest Statistics

CPU 0 cumulative IPC: 0.862906 instructions: 100000003 cycles: 115887425
cpu0_DTLB TOTAL     ACCESS:   20624695  HIT:   20586131  MISS:      38564
cpu0_DTLB LOAD      ACCESS:   14575880  HIT:   14554731  MISS:      21149
cpu0_DTLB RFO       ACCESS:    6048815  HIT:    6031400  MISS:      17415
cpu0_DTLB PREFETCH  ACCESS:          0  HIT:          0  MISS:          0
cpu0_DTLB WRITEBACK ACCESS:          0  HIT:          0  MISS:          0
cpu0_DTLB TRANSLATION ACCESS:          0  HIT:          0  MISS:          0
cpu0_DTLB PREFETCH  REQUESTED:          0  ISSUED:          0  USEFUL:          0  USELESS:          0
cpu0_DTLB AVERAGE MISS LATENCY: 82.6478 cycles
cpu0_DTLB MSHR FULL EVENTS: 0 MSHR MERGE EVENTS: 207465
cpu0_ITLB TOTAL     ACCESS:    2732638  HIT:    2732629  MISS:          9
cpu0_ITLB LOAD      ACCESS:    2732638  HIT:    2732629  MISS:          9
cpu0_ITLB RFO       ACCESS:          0  HIT:          0  MISS:          0
cpu0_ITLB PREFETCH  ACCESS:          0  HIT:          0  MISS:          0
cpu0_ITLB WRITEBACK ACCESS:          0  HIT:          0  MISS:          0
cpu0_ITLB TRANSLATION ACCESS:          0  HIT:          0  MISS:          0
cpu0_ITLB PREFETCH  REQUESTED:          0  ISSUED:          0  USEFUL:          0  USELESS:          0
cpu0_ITLB AVERAGE MISS LATENCY: 247.667 cycles
cpu0_ITLB MSHR FULL EVENTS: 0 MSHR MERGE EVENTS: 0
cpu0_L1I TOTAL     ACCESS:        306  HIT:        186  MISS:        120
cpu0_L1I LOAD      ACCESS:        306  HIT:        186  MISS:        120
cpu0_L1I RFO       ACCESS:          0  HIT:          0  MISS:          0
cpu0_L1I PREFETCH  ACCESS:          0  HIT:          0  MISS:          0
cpu0_L1I WRITEBACK ACCESS:          0  HIT:          0  MISS:          0
cpu0_L1I TRANSLATION ACCESS:          0  HIT:          0  MISS:          0
cpu0_L1I PREFETCH  REQUESTED:          0  ISSUED:          0  USEFUL:          0  USELESS:          0
cpu0_L1I AVERAGE MISS LATENCY: 180.825 cycles
cpu0_L1I MSHR FULL EVENTS: 0 MSHR MERGE EVENTS: 0
cpu0_STLB TOTAL     ACCESS:      38573  HIT:         36  MISS:      38537
cpu0_STLB LOAD      ACCESS:      21158  HIT:         31  MISS:      21127
cpu0_STLB RFO       ACCESS:      17415  HIT:          5  MISS:      17410
cpu0_STLB PREFETCH  ACCESS:          0  HIT:          0  MISS:          0
cpu0_STLB WRITEBACK ACCESS:          0  HIT:          0  MISS:          0
cpu0_STLB TRANSLATION ACCESS:          0  HIT:          0  MISS:          0
cpu0_STLB PREFETCH  REQUESTED:          0  ISSUED:          0  USEFUL:          0  USELESS:          0
cpu0_STLB AVERAGE MISS LATENCY: 74.7552 cycles
cpu0_STLB MSHR FULL EVENTS: 0 MSHR MERGE EVENTS: 0
cpu0_L1D TOTAL     ACCESS:   10203845  HIT:    7739966  MISS:    2463879
cpu0_L1D LOAD      ACCESS:    7666997  HIT:    6317120  MISS:    1349877
cpu0_L1D RFO       ACCESS:    2498310  HIT:    1384716  MISS:    1113594
cpu0_L1D PREFETCH  ACCESS:          0  HIT:          0  MISS:          0
cpu0_L1D WRITEBACK ACCESS:          0  HIT:          0  MISS:          0
cpu0_L1D TRANSLATION ACCESS:      38538  HIT:      38130  MISS:        408
cpu0_L1D PREFETCH  REQUESTED:          0  ISSUED:          0  USEFUL:          0  USELESS:          0
cpu0_L1D AVERAGE MISS LATENCY: 119.124 cycles
cpu0_L1D MSHR FULL EVENTS: 10273920 MSHR MERGE EVENTS: 7094249
cpu0_L2C TOTAL     ACCESS:    3665701  HIT:    1202105  MISS:    2463596
cpu0_L2C LOAD      ACCESS:    1349997  HIT:         40  MISS:    1349957
cpu0_L2C RFO       ACCESS:    1113594  HIT:          0  MISS:    1113594
cpu0_L2C PREFETCH  ACCESS:          0  HIT:          0  MISS:          0
cpu0_L2C WRITEBACK ACCESS:    1201702  HIT:    1201702  MISS:          0
cpu0_L2C TRANSLATION ACCESS:        408  HIT:        363  MISS:         45
cpu0_L2C PREFETCH  REQUESTED:          0  ISSUED:          0  USEFUL:          0  USELESS:          0
cpu0_L2C AVERAGE MISS LATENCY: 109.247 cycles
cpu0_L2C MSHR FULL EVENTS: 14347 MSHR MERGE EVENTS: 0
LLC TOTAL     ACCESS:    4927192  HIT:    1742022  MISS:     721574
LLC LOAD      ACCESS:    1349957  HIT:     920620  MISS:     429337
LLC RFO       ACCESS:    1113594  HIT:     821366  MISS:     292228
LLC PREFETCH  ACCESS:          0  HIT:          0  MISS:          0
LLC WRITEBACK ACCESS:    2463596  HIT:          0  MISS:    2463596
LLC TRANSLATION ACCESS:         45  HIT:         36  MISS:          9
LLC PREFETCH  REQUESTED:          0  ISSUED:          0  USEFUL:          0  USELESS:          0
LLC AVERAGE MISS LATENCY: 301.589 cycles
LLC MSHR FULL EVENTS: 0 MSHR MERGE EVENTS: 0
blocks bypassed = 0
blocks filled to llc = 0

DRAM Statistics
 CHANNEL 0
 RQ ROW_BUFFER_HIT:      82442  ROW_BUFFER_MISS:     639132
 DBUS AVG_CONGESTED_CYCLE:    3.97737
 WQ ROW_BUFFER_HIT:      18660  ROW_BUFFER_MISS:       9908  FULL:      19689


CPU 0 Branch Prediction Accuracy: 98.8599% MPKI: 2.49073 Average ROB Occupancy at Mispredict: 49.3103
Branch type MPKI
BRANCH_DIRECT_JUMP: 0.00026
BRANCH_INDIRECT: 0
BRANCH_CONDITIONAL: 2.49009
BRANCH_DIRECT_CALL: 0.0002
BRANCH_INDIRECT_CALL: 0
BRANCH_RETURN: 0.00018

