
*** ChampSim Multicore Out-of-Order Simulator ***

Warmup Instructions: 40000000
Simulation Instructions: 100000000
Number of CPUs: 1
Off-chip DRAM Size: 4 GiB Channels: 1 Width: 64-bit Data Rate: 3200 MT/s

VirtualMemory physical capacity: 4293914624 num_ppages: 1048319
VirtualMemory page size: 4096 log2_page_size: 12

CPU 0 runs ../../../../ICS/traces//sssp-5.trace.gz
CPU 0 Bimodal branch predictor
Basic BTB sets: 1024 ways: 8 indirect buffer size: 4096 RAS size: 64
Heartbeat CPU 0 instructions: 10000001 cycles: 2972432 heartbeat IPC: 3.36425 cumulative IPC: 3.36425 (Simulation time: 0 hr 1 min 12 sec) 
Heartbeat CPU 0 instructions: 20000001 cycles: 6362863 heartbeat IPC: 2.94948 cumulative IPC: 3.14324 (Simulation time: 0 hr 2 min 22 sec) 
Heartbeat CPU 0 instructions: 30000003 cycles: 9887579 heartbeat IPC: 2.83711 cumulative IPC: 3.03411 (Simulation time: 0 hr 3 min 45 sec) 
Heartbeat CPU 0 instructions: 40000001 cycles: 13495723 heartbeat IPC: 2.77151 cumulative IPC: 2.9639 (Simulation time: 0 hr 5 min 4 sec) 

Warmup complete CPU 0 instructions: 40000001 cycles: 13495723 (Simulation time: 0 hr 5 min 4 sec) 

Heartbeat CPU 0 instructions: 50000004 cycles: 28917700 heartbeat IPC: 0.648426 cumulative IPC: 0.648426 (Simulation time: 0 hr 6 min 39 sec) 
Heartbeat CPU 0 instructions: 60000002 cycles: 43208310 heartbeat IPC: 0.69976 cumulative IPC: 0.673115 (Simulation time: 0 hr 8 min 16 sec) 
Heartbeat CPU 0 instructions: 70000004 cycles: 56839565 heartbeat IPC: 0.733608 cumulative IPC: 0.69214 (Simulation time: 0 hr 9 min 51 sec) 
Heartbeat CPU 0 instructions: 80000000 cycles: 70319495 heartbeat IPC: 0.741843 cumulative IPC: 0.703931 (Simulation time: 0 hr 11 min 24 sec) 
Heartbeat CPU 0 instructions: 90000003 cycles: 82800326 heartbeat IPC: 0.801229 cumulative IPC: 0.721453 (Simulation time: 0 hr 13 min 7 sec) 
Heartbeat CPU 0 instructions: 100000002 cycles: 94854684 heartbeat IPC: 0.829575 cumulative IPC: 0.737473 (Simulation time: 0 hr 14 min 44 sec) 
Heartbeat CPU 0 instructions: 110000002 cycles: 106330037 heartbeat IPC: 0.871433 cumulative IPC: 0.754032 (Simulation time: 0 hr 16 min 20 sec) 
Heartbeat CPU 0 instructions: 120000003 cycles: 117411143 heartbeat IPC: 0.902437 cumulative IPC: 0.769857 (Simulation time: 0 hr 17 min 53 sec) 
Heartbeat CPU 0 instructions: 130000000 cycles: 128448260 heartbeat IPC: 0.906033 cumulative IPC: 0.782932 (Simulation time: 0 hr 19 min 21 sec) 
Heartbeat CPU 0 instructions: 140000001 cycles: 139077612 heartbeat IPC: 0.940791 cumulative IPC: 0.796293 (Simulation time: 0 hr 20 min 39 sec) 
Finished CPU 0 instructions: 100000000 cycles: 125581889 cumulative IPC: 0.796293 (Simulation time: 0 hr 20 min 39 sec) 

ChampSim completed all CPUs

Region of Interest Statistics

CPU 0 cumulative IPC: 0.796293 instructions: 100000000 cycles: 125581889
cpu0_DTLB TOTAL     ACCESS:   24813944  HIT:   22875268  MISS:    1938676
cpu0_DTLB LOAD      ACCESS:   23831305  HIT:   22276021  MISS:    1555284
cpu0_DTLB RFO       ACCESS:     982639  HIT:     599247  MISS:     383392
cpu0_DTLB PREFETCH  ACCESS:          0  HIT:          0  MISS:          0
cpu0_DTLB WRITEBACK ACCESS:          0  HIT:          0  MISS:          0
cpu0_DTLB TRANSLATION ACCESS:          0  HIT:          0  MISS:          0
cpu0_DTLB PREFETCH  REQUESTED:          0  ISSUED:          0  USEFUL:          0  USELESS:          0
cpu0_DTLB AVERAGE MISS LATENCY: 10.7608 cycles
cpu0_DTLB MSHR FULL EVENTS: 240 MSHR MERGE EVENTS: 550380
cpu0_ITLB TOTAL     ACCESS:    8878916  HIT:    8878916  MISS:          0
cpu0_ITLB LOAD      ACCESS:    8878916  HIT:    8878916  MISS:          0
cpu0_ITLB RFO       ACCESS:          0  HIT:          0  MISS:          0
cpu0_ITLB PREFETCH  ACCESS:          0  HIT:          0  MISS:          0
cpu0_ITLB WRITEBACK ACCESS:          0  HIT:          0  MISS:          0
cpu0_ITLB TRANSLATION ACCESS:          0  HIT:          0  MISS:          0
cpu0_ITLB PREFETCH  REQUESTED:          0  ISSUED:          0  USEFUL:          0  USELESS:          0
cpu0_ITLB AVERAGE MISS LATENCY: -nan cycles
cpu0_ITLB MSHR FULL EVENTS: 0 MSHR MERGE EVENTS: 0
cpu0_L1I TOTAL     ACCESS:      15312  HIT:      15312  MISS:          0
cpu0_L1I LOAD      ACCESS:      15312  HIT:      15312  MISS:          0
cpu0_L1I RFO       ACCESS:          0  HIT:          0  MISS:          0
cpu0_L1I PREFETCH  ACCESS:          0  HIT:          0  MISS:          0
cpu0_L1I WRITEBACK ACCESS:          0  HIT:          0  MISS:          0
cpu0_L1I TRANSLATION ACCESS:          0  HIT:          0  MISS:          0
cpu0_L1I PREFETCH  REQUESTED:          0  ISSUED:          0  USEFUL:          0  USELESS:          0
cpu0_L1I AVERAGE MISS LATENCY: -nan cycles
cpu0_L1I MSHR FULL EVENTS: 0 MSHR MERGE EVENTS: 0
cpu0_STLB TOTAL     ACCESS:    1938676  HIT:    1912776  MISS:      25900
cpu0_STLB LOAD      ACCESS:    1555284  HIT:    1533869  MISS:      21415
cpu0_STLB RFO       ACCESS:     383392  HIT:     378907  MISS:       4485
cpu0_STLB PREFETCH  ACCESS:          0  HIT:          0  MISS:          0
cpu0_STLB WRITEBACK ACCESS:          0  HIT:          0  MISS:          0
cpu0_STLB TRANSLATION ACCESS:          0  HIT:          0  MISS:          0
cpu0_STLB PREFETCH  REQUESTED:          0  ISSUED:          0  USEFUL:          0  USELESS:          0
cpu0_STLB AVERAGE MISS LATENCY: 124.252 cycles
cpu0_STLB MSHR FULL EVENTS: 0 MSHR MERGE EVENTS: 0
cpu0_L1D TOTAL     ACCESS:   19691943  HIT:   14397354  MISS:    5294589
cpu0_L1D LOAD      ACCESS:   18215080  HIT:   13238467  MISS:    4976613
cpu0_L1D RFO       ACCESS:    1451084  HIT:    1141730  MISS:     309354
cpu0_L1D PREFETCH  ACCESS:          0  HIT:          0  MISS:          0
cpu0_L1D WRITEBACK ACCESS:          0  HIT:          0  MISS:          0
cpu0_L1D TRANSLATION ACCESS:      25779  HIT:      17157  MISS:       8622
cpu0_L1D PREFETCH  REQUESTED:          0  ISSUED:          0  USEFUL:          0  USELESS:          0
cpu0_L1D AVERAGE MISS LATENCY: 33.3687 cycles
cpu0_L1D MSHR FULL EVENTS: 398254 MSHR MERGE EVENTS: 2778569
cpu0_L2C TOTAL     ACCESS:    6198391  HIT:    2950419  MISS:    3247708
cpu0_L2C LOAD      ACCESS:    4976607  HIT:    1809079  MISS:    3167528
cpu0_L2C RFO       ACCESS:     309342  HIT:     230742  MISS:      78600
cpu0_L2C PREFETCH  ACCESS:          0  HIT:          0  MISS:          0
cpu0_L2C WRITEBACK ACCESS:     903820  HIT:     903556  MISS:        264
cpu0_L2C TRANSLATION ACCESS:       8622  HIT:       7042  MISS:       1580
cpu0_L2C PREFETCH  REQUESTED:          0  ISSUED:          0  USEFUL:          0  USELESS:          0
cpu0_L2C AVERAGE MISS LATENCY: 37.0236 cycles
cpu0_L2C MSHR FULL EVENTS: 0 MSHR MERGE EVENTS: 0
LLC TOTAL     ACCESS:    6495645  HIT:    2644098  MISS:     603609
LLC LOAD      ACCESS:    3167496  HIT:    2602558  MISS:     564938
LLC RFO       ACCESS:      78600  HIT:      39929  MISS:      38671
LLC PREFETCH  ACCESS:          0  HIT:          0  MISS:          0
LLC WRITEBACK ACCESS:    3247969  HIT:         31  MISS:    3247938
LLC TRANSLATION ACCESS:       1580  HIT:       1580  MISS:          0
LLC PREFETCH  REQUESTED:          0  ISSUED:          0  USEFUL:          0  USELESS:          0
LLC AVERAGE MISS LATENCY: 87.1421 cycles
LLC MSHR FULL EVENTS: 0 MSHR MERGE EVENTS: 0
blocks bypassed = 0
blocks filled to llc = 0

DRAM Statistics
 CHANNEL 0
 RQ ROW_BUFFER_HIT:     469315  ROW_BUFFER_MISS:     134294
 DBUS AVG_CONGESTED_CYCLE:    3.90491
 WQ ROW_BUFFER_HIT:         65  ROW_BUFFER_MISS:        228  FULL:          0


CPU 0 Branch Prediction Accuracy: 94.4068% MPKI: 8.29424 Average ROB Occupancy at Mispredict: 81.4435
Branch type MPKI
BRANCH_DIRECT_JUMP: 0
BRANCH_INDIRECT: 0
BRANCH_CONDITIONAL: 8.29424
BRANCH_DIRECT_CALL: 0
BRANCH_INDIRECT_CALL: 0
BRANCH_RETURN: 0

