
*** ChampSim Multicore Out-of-Order Simulator ***

Warmup Instructions: 40000000
Simulation Instructions: 100000000
Number of CPUs: 1
Off-chip DRAM Size: 4 GiB Channels: 1 Width: 64-bit Data Rate: 3200 MT/s

VirtualMemory physical capacity: 4293914624 num_ppages: 1048319
VirtualMemory page size: 4096 log2_page_size: 12

CPU 0 runs ../../../../ICS/traces//MIS_21250M.champsim.xz
CPU 0 Bimodal branch predictor
Basic BTB sets: 1024 ways: 8 indirect buffer size: 4096 RAS size: 64
Heartbeat CPU 0 instructions: 10000002 cycles: 2941290 heartbeat IPC: 3.39987 cumulative IPC: 3.39987 (Simulation time: 0 hr 1 min 14 sec) 
Heartbeat CPU 0 instructions: 20000002 cycles: 5882462 heartbeat IPC: 3.40001 cumulative IPC: 3.39994 (Simulation time: 0 hr 2 min 12 sec) 
Heartbeat CPU 0 instructions: 30000000 cycles: 8823636 heartbeat IPC: 3.4 cumulative IPC: 3.39996 (Simulation time: 0 hr 3 min 6 sec) 
Heartbeat CPU 0 instructions: 40000000 cycles: 11764812 heartbeat IPC: 3.4 cumulative IPC: 3.39997 (Simulation time: 0 hr 4 min 0 sec) 

Warmup complete CPU 0 instructions: 40000005 cycles: 11764813 (Simulation time: 0 hr 4 min 0 sec) 

Heartbeat CPU 0 instructions: 50000001 cycles: 79165407 heartbeat IPC: 0.148367 cumulative IPC: 0.148367 (Simulation time: 0 hr 10 min 38 sec) 
Heartbeat CPU 0 instructions: 60000003 cycles: 90547858 heartbeat IPC: 0.878546 cumulative IPC: 0.253862 (Simulation time: 0 hr 11 min 43 sec) 
Heartbeat CPU 0 instructions: 70000002 cycles: 98176085 heartbeat IPC: 1.31092 cumulative IPC: 0.347177 (Simulation time: 0 hr 12 min 46 sec) 
Heartbeat CPU 0 instructions: 80000000 cycles: 106143068 heartbeat IPC: 1.25518 cumulative IPC: 0.423826 (Simulation time: 0 hr 13 min 50 sec) 
Heartbeat CPU 0 instructions: 90000003 cycles: 114708767 heartbeat IPC: 1.16745 cumulative IPC: 0.485701 (Simulation time: 0 hr 14 min 55 sec) 
Heartbeat CPU 0 instructions: 100000001 cycles: 123837908 heartbeat IPC: 1.09539 cumulative IPC: 0.535365 (Simulation time: 0 hr 16 min 0 sec) 
Heartbeat CPU 0 instructions: 110000002 cycles: 134512230 heartbeat IPC: 0.936828 cumulative IPC: 0.570277 (Simulation time: 0 hr 16 min 58 sec) 
Heartbeat CPU 0 instructions: 120000001 cycles: 148511128 heartbeat IPC: 0.714342 cumulative IPC: 0.585025 (Simulation time: 0 hr 17 min 55 sec) 
Heartbeat CPU 0 instructions: 130000000 cycles: 161144766 heartbeat IPC: 0.791538 cumulative IPC: 0.60249 (Simulation time: 0 hr 18 min 57 sec) 
Heartbeat CPU 0 instructions: 140000001 cycles: 174691475 heartbeat IPC: 0.738187 cumulative IPC: 0.613773 (Simulation time: 0 hr 19 min 59 sec) 
Finished CPU 0 instructions: 100000000 cycles: 162926663 cumulative IPC: 0.613773 (Simulation time: 0 hr 19 min 59 sec) 

ChampSim completed all CPUs

Region of Interest Statistics

CPU 0 cumulative IPC: 0.613773 instructions: 100000000 cycles: 162926663
cpu0_DTLB TOTAL     ACCESS:   24495505  HIT:   24418438  MISS:      77067
cpu0_DTLB LOAD      ACCESS:   24272589  HIT:   24196168  MISS:      76421
cpu0_DTLB RFO       ACCESS:     222916  HIT:     222270  MISS:        646
cpu0_DTLB PREFETCH  ACCESS:          0  HIT:          0  MISS:          0
cpu0_DTLB WRITEBACK ACCESS:          0  HIT:          0  MISS:          0
cpu0_DTLB TRANSLATION ACCESS:          0  HIT:          0  MISS:          0
cpu0_DTLB PREFETCH  REQUESTED:          0  ISSUED:          0  USEFUL:          0  USELESS:          0
cpu0_DTLB AVERAGE MISS LATENCY: 43.7055 cycles
cpu0_DTLB MSHR FULL EVENTS: 0 MSHR MERGE EVENTS: 118871
cpu0_ITLB TOTAL     ACCESS:    6653782  HIT:    6653774  MISS:          8
cpu0_ITLB LOAD      ACCESS:    6653782  HIT:    6653774  MISS:          8
cpu0_ITLB RFO       ACCESS:          0  HIT:          0  MISS:          0
cpu0_ITLB PREFETCH  ACCESS:          0  HIT:          0  MISS:          0
cpu0_ITLB WRITEBACK ACCESS:          0  HIT:          0  MISS:          0
cpu0_ITLB TRANSLATION ACCESS:          0  HIT:          0  MISS:          0
cpu0_ITLB PREFETCH  REQUESTED:          0  ISSUED:          0  USEFUL:          0  USELESS:          0
cpu0_ITLB AVERAGE MISS LATENCY: 337.125 cycles
cpu0_ITLB MSHR FULL EVENTS: 0 MSHR MERGE EVENTS: 0
cpu0_L1I TOTAL     ACCESS:        198  HIT:        106  MISS:         92
cpu0_L1I LOAD      ACCESS:        198  HIT:        106  MISS:         92
cpu0_L1I RFO       ACCESS:          0  HIT:          0  MISS:          0
cpu0_L1I PREFETCH  ACCESS:          0  HIT:          0  MISS:          0
cpu0_L1I WRITEBACK ACCESS:          0  HIT:          0  MISS:          0
cpu0_L1I TRANSLATION ACCESS:          0  HIT:          0  MISS:          0
cpu0_L1I PREFETCH  REQUESTED:          0  ISSUED:          0  USEFUL:          0  USELESS:          0
cpu0_L1I AVERAGE MISS LATENCY: 183.239 cycles
cpu0_L1I MSHR FULL EVENTS: 0 MSHR MERGE EVENTS: 0
cpu0_STLB TOTAL     ACCESS:      77075  HIT:      62101  MISS:      14974
cpu0_STLB LOAD      ACCESS:      76429  HIT:      62101  MISS:      14328
cpu0_STLB RFO       ACCESS:        646  HIT:          0  MISS:        646
cpu0_STLB PREFETCH  ACCESS:          0  HIT:          0  MISS:          0
cpu0_STLB WRITEBACK ACCESS:          0  HIT:          0  MISS:          0
cpu0_STLB TRANSLATION ACCESS:          0  HIT:          0  MISS:          0
cpu0_STLB PREFETCH  REQUESTED:          0  ISSUED:          0  USEFUL:          0  USELESS:          0
cpu0_STLB AVERAGE MISS LATENCY: 179.776 cycles
cpu0_STLB MSHR FULL EVENTS: 0 MSHR MERGE EVENTS: 0
cpu0_L1D TOTAL     ACCESS:   16124210  HIT:   13826281  MISS:    2297929
cpu0_L1D LOAD      ACCESS:   16042172  HIT:   13788396  MISS:    2253776
cpu0_L1D RFO       ACCESS:      67061  HIT:      25845  MISS:      41216
cpu0_L1D PREFETCH  ACCESS:          0  HIT:          0  MISS:          0
cpu0_L1D WRITEBACK ACCESS:          0  HIT:          0  MISS:          0
cpu0_L1D TRANSLATION ACCESS:      14977  HIT:      12040  MISS:       2937
cpu0_L1D PREFETCH  REQUESTED:          0  ISSUED:          0  USEFUL:          0  USELESS:          0
cpu0_L1D AVERAGE MISS LATENCY: 96.9912 cycles
cpu0_L1D MSHR FULL EVENTS: 2732305 MSHR MERGE EVENTS: 2617973
cpu0_L2C TOTAL     ACCESS:    2339649  HIT:    1372032  MISS:     967616
cpu0_L2C LOAD      ACCESS:    2253868  HIT:    1327507  MISS:     926361
cpu0_L2C RFO       ACCESS:      41216  HIT:          0  MISS:      41216
cpu0_L2C PREFETCH  ACCESS:          0  HIT:          0  MISS:          0
cpu0_L2C WRITEBACK ACCESS:      41628  HIT:      41627  MISS:          1
cpu0_L2C TRANSLATION ACCESS:       2937  HIT:       2898  MISS:         39
cpu0_L2C PREFETCH  REQUESTED:          0  ISSUED:          0  USEFUL:          0  USELESS:          0
cpu0_L2C AVERAGE MISS LATENCY: 205.157 cycles
cpu0_L2C MSHR FULL EVENTS: 0 MSHR MERGE EVENTS: 0
LLC TOTAL     ACCESS:    1935236  HIT:      12588  MISS:     955029
LLC LOAD      ACCESS:     926362  HIT:      12576  MISS:     913786
LLC RFO       ACCESS:      41216  HIT:          0  MISS:      41216
LLC PREFETCH  ACCESS:          0  HIT:          0  MISS:          0
LLC WRITEBACK ACCESS:     967619  HIT:          0  MISS:     967619
LLC TRANSLATION ACCESS:         39  HIT:         12  MISS:         27
LLC PREFETCH  REQUESTED:          0  ISSUED:          0  USEFUL:          0  USELESS:          0
LLC AVERAGE MISS LATENCY: 187.584 cycles
LLC MSHR FULL EVENTS: 0 MSHR MERGE EVENTS: 0
blocks bypassed = 0
blocks filled to llc = 0

DRAM Statistics
 CHANNEL 0
 RQ ROW_BUFFER_HIT:     280716  ROW_BUFFER_MISS:     674303
 DBUS AVG_CONGESTED_CYCLE:    3.93556
 WQ ROW_BUFFER_HIT:      24160  ROW_BUFFER_MISS:      58294  FULL:          0


CPU 0 Branch Prediction Accuracy: 98.802% MPKI: 3.81062 Average ROB Occupancy at Mispredict: 153.751
Branch type MPKI
BRANCH_DIRECT_JUMP: 0.0002
BRANCH_INDIRECT: 0
BRANCH_CONDITIONAL: 3.81025
BRANCH_DIRECT_CALL: 9e-05
BRANCH_INDIRECT_CALL: 0
BRANCH_RETURN: 8e-05

