
*** ChampSim Multicore Out-of-Order Simulator ***

Warmup Instructions: 40000000
Simulation Instructions: 100000000
Number of CPUs: 1
Off-chip DRAM Size: 4 GiB Channels: 1 Width: 64-bit Data Rate: 3200 MT/s

VirtualMemory physical capacity: 4293914624 num_ppages: 1048319
VirtualMemory page size: 4096 log2_page_size: 12

CPU 0 runs ../../../../ICS/traces//BellmanFord_33750M.champsim.xz
CPU 0 Bimodal branch predictor
Basic BTB sets: 1024 ways: 8 indirect buffer size: 4096 RAS size: 64
Heartbeat CPU 0 instructions: 10000001 cycles: 3606155 heartbeat IPC: 2.77304 cumulative IPC: 2.77304 (Simulation time: 0 hr 0 min 54 sec) 
Heartbeat CPU 0 instructions: 20000000 cycles: 7193507 heartbeat IPC: 2.78757 cumulative IPC: 2.78029 (Simulation time: 0 hr 1 min 47 sec) 
Heartbeat CPU 0 instructions: 30000003 cycles: 10757652 heartbeat IPC: 2.80572 cumulative IPC: 2.78871 (Simulation time: 0 hr 2 min 45 sec) 
Heartbeat CPU 0 instructions: 40000000 cycles: 14263510 heartbeat IPC: 2.85237 cumulative IPC: 2.80436 (Simulation time: 0 hr 3 min 56 sec) 

Warmup complete CPU 0 instructions: 40000005 cycles: 14263511 (Simulation time: 0 hr 3 min 56 sec) 

Heartbeat CPU 0 instructions: 50000000 cycles: 39356747 heartbeat IPC: 0.398514 cumulative IPC: 0.398514 (Simulation time: 0 hr 6 min 10 sec) 
Heartbeat CPU 0 instructions: 60000001 cycles: 66648942 heartbeat IPC: 0.366405 cumulative IPC: 0.381785 (Simulation time: 0 hr 8 min 28 sec) 
Heartbeat CPU 0 instructions: 70000000 cycles: 91312905 heartbeat IPC: 0.40545 cumulative IPC: 0.389361 (Simulation time: 0 hr 10 min 36 sec) 
Heartbeat CPU 0 instructions: 80000001 cycles: 119871611 heartbeat IPC: 0.350156 cumulative IPC: 0.378759 (Simulation time: 0 hr 13 min 1 sec) 
Heartbeat CPU 0 instructions: 90000003 cycles: 150619982 heartbeat IPC: 0.325221 cumulative IPC: 0.366686 (Simulation time: 0 hr 15 min 20 sec) 
Heartbeat CPU 0 instructions: 100000004 cycles: 184462220 heartbeat IPC: 0.295489 cumulative IPC: 0.352529 (Simulation time: 0 hr 17 min 35 sec) 
Heartbeat CPU 0 instructions: 110000003 cycles: 220153257 heartbeat IPC: 0.280182 cumulative IPC: 0.339988 (Simulation time: 0 hr 19 min 47 sec) 
Heartbeat CPU 0 instructions: 120000004 cycles: 255946962 heartbeat IPC: 0.279379 cumulative IPC: 0.331012 (Simulation time: 0 hr 21 min 50 sec) 
Heartbeat CPU 0 instructions: 130000000 cycles: 290621446 heartbeat IPC: 0.288396 cumulative IPC: 0.325665 (Simulation time: 0 hr 23 min 55 sec) 
Heartbeat CPU 0 instructions: 140000002 cycles: 333365529 heartbeat IPC: 0.233951 cumulative IPC: 0.313379 (Simulation time: 0 hr 26 min 8 sec) 
Finished CPU 0 instructions: 100000002 cycles: 319102019 cumulative IPC: 0.313379 (Simulation time: 0 hr 26 min 8 sec) 

ChampSim completed all CPUs

Region of Interest Statistics

CPU 0 cumulative IPC: 0.313379 instructions: 100000002 cycles: 319102019
cpu0_DTLB TOTAL     ACCESS:   25483677  HIT:   23790867  MISS:    1692810
cpu0_DTLB LOAD      ACCESS:   24792528  HIT:   23318973  MISS:    1473555
cpu0_DTLB RFO       ACCESS:     691149  HIT:     471894  MISS:     219255
cpu0_DTLB PREFETCH  ACCESS:          0  HIT:          0  MISS:          0
cpu0_DTLB WRITEBACK ACCESS:          0  HIT:          0  MISS:          0
cpu0_DTLB TRANSLATION ACCESS:          0  HIT:          0  MISS:          0
cpu0_DTLB PREFETCH  REQUESTED:          0  ISSUED:          0  USEFUL:          0  USELESS:          0
cpu0_DTLB AVERAGE MISS LATENCY: 14.9754 cycles
cpu0_DTLB MSHR FULL EVENTS: 2 MSHR MERGE EVENTS: 309514
cpu0_ITLB TOTAL     ACCESS:    9042366  HIT:    9042366  MISS:          0
cpu0_ITLB LOAD      ACCESS:    9042366  HIT:    9042366  MISS:          0
cpu0_ITLB RFO       ACCESS:          0  HIT:          0  MISS:          0
cpu0_ITLB PREFETCH  ACCESS:          0  HIT:          0  MISS:          0
cpu0_ITLB WRITEBACK ACCESS:          0  HIT:          0  MISS:          0
cpu0_ITLB TRANSLATION ACCESS:          0  HIT:          0  MISS:          0
cpu0_ITLB PREFETCH  REQUESTED:          0  ISSUED:          0  USEFUL:          0  USELESS:          0
cpu0_ITLB AVERAGE MISS LATENCY: -nan cycles
cpu0_ITLB MSHR FULL EVENTS: 0 MSHR MERGE EVENTS: 0
cpu0_STLB TOTAL     ACCESS:    1692810  HIT:    1058368  MISS:     634442
cpu0_STLB LOAD      ACCESS:    1473555  HIT:     990497  MISS:     483058
cpu0_STLB RFO       ACCESS:     219255  HIT:      67871  MISS:     151384
cpu0_STLB PREFETCH  ACCESS:          0  HIT:          0  MISS:          0
cpu0_STLB WRITEBACK ACCESS:          0  HIT:          0  MISS:          0
cpu0_STLB TRANSLATION ACCESS:          0  HIT:          0  MISS:          0
cpu0_STLB PREFETCH  REQUESTED:          0  ISSUED:          0  USEFUL:          0  USELESS:          0
cpu0_STLB AVERAGE MISS LATENCY: 16.5404 cycles
cpu0_STLB MSHR FULL EVENTS: 0 MSHR MERGE EVENTS: 0
cpu0_L1D TOTAL     ACCESS:   18384141  HIT:   15041867  MISS:    3342274
cpu0_L1D LOAD      ACCESS:   17126799  HIT:   13899847  MISS:    3226952
cpu0_L1D RFO       ACCESS:     669188  HIT:     556507  MISS:     112681
cpu0_L1D PREFETCH  ACCESS:          0  HIT:          0  MISS:          0
cpu0_L1D WRITEBACK ACCESS:          0  HIT:          0  MISS:          0
cpu0_L1D TRANSLATION ACCESS:     588154  HIT:     585513  MISS:       2641
cpu0_L1D PREFETCH  REQUESTED:          0  ISSUED:          0  USEFUL:          0  USELESS:          0
cpu0_L1D AVERAGE MISS LATENCY: 192.453 cycles
cpu0_L1D MSHR FULL EVENTS: 218599 MSHR MERGE EVENTS: 2705026
cpu0_L2C TOTAL     ACCESS:    3736579  HIT:     726082  MISS:    3010497
cpu0_L2C LOAD      ACCESS:    3226950  HIT:     321195  MISS:    2905755
cpu0_L2C RFO       ACCESS:     112675  HIT:       8194  MISS:     104481
cpu0_L2C PREFETCH  ACCESS:          0  HIT:          0  MISS:          0
cpu0_L2C WRITEBACK ACCESS:     394313  HIT:     394313  MISS:          0
cpu0_L2C TRANSLATION ACCESS:       2641  HIT:       2380  MISS:        261
cpu0_L2C PREFETCH  REQUESTED:          0  ISSUED:          0  USEFUL:          0  USELESS:          0
cpu0_L2C AVERAGE MISS LATENCY: 202.386 cycles
cpu0_L2C MSHR FULL EVENTS: 0 MSHR MERGE EVENTS: 0
LLC TOTAL     ACCESS:    6020991  HIT:     555660  MISS:    2454837
LLC LOAD      ACCESS:    2905752  HIT:     546314  MISS:    2359438
LLC RFO       ACCESS:     104481  HIT:       9136  MISS:      95345
LLC PREFETCH  ACCESS:          0  HIT:          0  MISS:          0
LLC WRITEBACK ACCESS:    3010497  HIT:          3  MISS:    3010494
LLC TRANSLATION ACCESS:        261  HIT:        207  MISS:         54
LLC PREFETCH  REQUESTED:          0  ISSUED:          0  USEFUL:          0  USELESS:          0
LLC AVERAGE MISS LATENCY: 223.443 cycles
LLC MSHR FULL EVENTS: 0 MSHR MERGE EVENTS: 0
blocks bypassed = 0
blocks filled to llc = 0

DRAM Statistics
 CHANNEL 0
 RQ ROW_BUFFER_HIT:      53205  ROW_BUFFER_MISS:    2401484
 DBUS AVG_CONGESTED_CYCLE:     3.8739
 WQ ROW_BUFFER_HIT:      29611  ROW_BUFFER_MISS:     293237  FULL:          0


CPU 0 Branch Prediction Accuracy: 89.2645% MPKI: 16.3469 Average ROB Occupancy at Mispredict: 37.1976
Branch type MPKI
BRANCH_DIRECT_JUMP: 0
BRANCH_INDIRECT: 0
BRANCH_CONDITIONAL: 16.3469
BRANCH_DIRECT_CALL: 0
BRANCH_INDIRECT_CALL: 0
BRANCH_RETURN: 0

