
*** ChampSim Multicore Out-of-Order Simulator ***

Warmup Instructions: 40000000
Simulation Instructions: 100000000
Number of CPUs: 1
Off-chip DRAM Size: 4 GiB Channels: 1 Width: 64-bit Data Rate: 3200 MT/s

VirtualMemory physical capacity: 4293914624 num_ppages: 1048319
VirtualMemory page size: 4096 log2_page_size: 12

CPU 0 runs ../../../../ICS/traces//PageRankDelta_17000M.champsim.xz
CPU 0 Bimodal branch predictor
Basic BTB sets: 1024 ways: 8 indirect buffer size: 4096 RAS size: 64
Heartbeat CPU 0 instructions: 10000001 cycles: 2686595 heartbeat IPC: 3.72218 cumulative IPC: 3.72218 (Simulation time: 0 hr 0 min 56 sec) 
Heartbeat CPU 0 instructions: 20000003 cycles: 5228147 heartbeat IPC: 3.9346 cumulative IPC: 3.82545 (Simulation time: 0 hr 1 min 47 sec) 
Heartbeat CPU 0 instructions: 30000002 cycles: 7831592 heartbeat IPC: 3.84106 cumulative IPC: 3.83064 (Simulation time: 0 hr 2 min 28 sec) 
Heartbeat CPU 0 instructions: 40000001 cycles: 10523830 heartbeat IPC: 3.71438 cumulative IPC: 3.8009 (Simulation time: 0 hr 3 min 10 sec) 

Warmup complete CPU 0 instructions: 40000001 cycles: 10523830 (Simulation time: 0 hr 3 min 10 sec) 

Heartbeat CPU 0 instructions: 50000003 cycles: 18353244 heartbeat IPC: 1.27724 cumulative IPC: 1.27724 (Simulation time: 0 hr 4 min 43 sec) 
Heartbeat CPU 0 instructions: 60000000 cycles: 31839113 heartbeat IPC: 0.741517 cumulative IPC: 0.938294 (Simulation time: 0 hr 6 min 47 sec) 
Heartbeat CPU 0 instructions: 70000002 cycles: 41313073 heartbeat IPC: 1.05553 cumulative IPC: 0.974366 (Simulation time: 0 hr 8 min 21 sec) 
Heartbeat CPU 0 instructions: 80000001 cycles: 52505033 heartbeat IPC: 0.893498 cumulative IPC: 0.952807 (Simulation time: 0 hr 10 min 10 sec) 
Heartbeat CPU 0 instructions: 90000001 cycles: 60543411 heartbeat IPC: 1.24403 cumulative IPC: 0.999609 (Simulation time: 0 hr 11 min 37 sec) 
Heartbeat CPU 0 instructions: 100000000 cycles: 70385327 heartbeat IPC: 1.01606 cumulative IPC: 1.00231 (Simulation time: 0 hr 13 min 15 sec) 
Heartbeat CPU 0 instructions: 110000002 cycles: 75960937 heartbeat IPC: 1.79353 cumulative IPC: 1.06973 (Simulation time: 0 hr 14 min 28 sec) 
Heartbeat CPU 0 instructions: 120000002 cycles: 81375553 heartbeat IPC: 1.84685 cumulative IPC: 1.12912 (Simulation time: 0 hr 15 min 39 sec) 
Heartbeat CPU 0 instructions: 130000001 cycles: 85962525 heartbeat IPC: 2.18009 cumulative IPC: 1.19302 (Simulation time: 0 hr 16 min 40 sec) 
Heartbeat CPU 0 instructions: 140000000 cycles: 91101851 heartbeat IPC: 1.94578 cumulative IPC: 1.24103 (Simulation time: 0 hr 17 min 43 sec) 
Finished CPU 0 instructions: 100000004 cycles: 80578022 cumulative IPC: 1.24103 (Simulation time: 0 hr 17 min 43 sec) 

ChampSim completed all CPUs

Region of Interest Statistics

CPU 0 cumulative IPC: 1.24103 instructions: 100000004 cycles: 80578022
cpu0_DTLB TOTAL     ACCESS:   25008022  HIT:   24954155  MISS:      53867
cpu0_DTLB LOAD      ACCESS:   13172285  HIT:   13154115  MISS:      18170
cpu0_DTLB RFO       ACCESS:   11835737  HIT:   11800040  MISS:      35697
cpu0_DTLB PREFETCH  ACCESS:          0  HIT:          0  MISS:          0
cpu0_DTLB WRITEBACK ACCESS:          0  HIT:          0  MISS:          0
cpu0_DTLB TRANSLATION ACCESS:          0  HIT:          0  MISS:          0
cpu0_DTLB PREFETCH  REQUESTED:          0  ISSUED:          0  USEFUL:          0  USELESS:          0
cpu0_DTLB AVERAGE MISS LATENCY: 38.9376 cycles
cpu0_DTLB MSHR FULL EVENTS: 27515 MSHR MERGE EVENTS: 150704
cpu0_ITLB TOTAL     ACCESS:    1554734  HIT:    1554734  MISS:          0
cpu0_ITLB LOAD      ACCESS:    1554734  HIT:    1554734  MISS:          0
cpu0_ITLB RFO       ACCESS:          0  HIT:          0  MISS:          0
cpu0_ITLB PREFETCH  ACCESS:          0  HIT:          0  MISS:          0
cpu0_ITLB WRITEBACK ACCESS:          0  HIT:          0  MISS:          0
cpu0_ITLB TRANSLATION ACCESS:          0  HIT:          0  MISS:          0
cpu0_ITLB PREFETCH  REQUESTED:          0  ISSUED:          0  USEFUL:          0  USELESS:          0
cpu0_ITLB AVERAGE MISS LATENCY: -nan cycles
cpu0_ITLB MSHR FULL EVENTS: 0 MSHR MERGE EVENTS: 0
cpu0_L1I TOTAL     ACCESS:        438  HIT:        438  MISS:          0
cpu0_L1I LOAD      ACCESS:        438  HIT:        438  MISS:          0
cpu0_L1I RFO       ACCESS:          0  HIT:          0  MISS:          0
cpu0_L1I PREFETCH  ACCESS:          0  HIT:          0  MISS:          0
cpu0_L1I WRITEBACK ACCESS:          0  HIT:          0  MISS:          0
cpu0_L1I TRANSLATION ACCESS:          0  HIT:          0  MISS:          0
cpu0_L1I PREFETCH  REQUESTED:          0  ISSUED:          0  USEFUL:          0  USELESS:          0
cpu0_L1I AVERAGE MISS LATENCY: -nan cycles
cpu0_L1I MSHR FULL EVENTS: 0 MSHR MERGE EVENTS: 0
cpu0_STLB TOTAL     ACCESS:      53867  HIT:      41717  MISS:      12150
cpu0_STLB LOAD      ACCESS:      18170  HIT:      12367  MISS:       5803
cpu0_STLB RFO       ACCESS:      35697  HIT:      29350  MISS:       6347
cpu0_STLB PREFETCH  ACCESS:          0  HIT:          0  MISS:          0
cpu0_STLB WRITEBACK ACCESS:          0  HIT:          0  MISS:          0
cpu0_STLB TRANSLATION ACCESS:          0  HIT:          0  MISS:          0
cpu0_STLB PREFETCH  REQUESTED:          0  ISSUED:          0  USEFUL:          0  USELESS:          0
cpu0_STLB AVERAGE MISS LATENCY: 133.9 cycles
cpu0_STLB MSHR FULL EVENTS: 0 MSHR MERGE EVENTS: 0
cpu0_L1D TOTAL     ACCESS:   23784922  HIT:   21315869  MISS:    2469053
cpu0_L1D LOAD      ACCESS:    8289796  HIT:    6917105  MISS:    1372691
cpu0_L1D RFO       ACCESS:   15484844  HIT:   14389783  MISS:    1095061
cpu0_L1D PREFETCH  ACCESS:          0  HIT:          0  MISS:          0
cpu0_L1D WRITEBACK ACCESS:          0  HIT:          0  MISS:          0
cpu0_L1D TRANSLATION ACCESS:      10282  HIT:       8981  MISS:       1301
cpu0_L1D PREFETCH  REQUESTED:          0  ISSUED:          0  USEFUL:          0  USELESS:          0
cpu0_L1D AVERAGE MISS LATENCY: 344.778 cycles
cpu0_L1D MSHR FULL EVENTS: 47874320 MSHR MERGE EVENTS: 6549745
cpu0_L2C TOTAL     ACCESS:    3566106  HIT:    1555022  MISS:    2011049
cpu0_L2C LOAD      ACCESS:    1372667  HIT:     394009  MISS:     978658
cpu0_L2C RFO       ACCESS:    1094974  HIT:      62648  MISS:    1032326
cpu0_L2C PREFETCH  ACCESS:          0  HIT:          0  MISS:          0
cpu0_L2C WRITEBACK ACCESS:    1097164  HIT:    1097129  MISS:         35
cpu0_L2C TRANSLATION ACCESS:       1301  HIT:       1236  MISS:         65
cpu0_L2C PREFETCH  REQUESTED:          0  ISSUED:          0  USEFUL:          0  USELESS:          0
cpu0_L2C AVERAGE MISS LATENCY: 412.316 cycles
cpu0_L2C MSHR FULL EVENTS: 116796 MSHR MERGE EVENTS: 0
LLC TOTAL     ACCESS:    4022132  HIT:     884570  MISS:    1126479
LLC LOAD      ACCESS:     978657  HIT:     449633  MISS:     529024
LLC RFO       ACCESS:    1032326  HIT:     434892  MISS:     597434
LLC PREFETCH  ACCESS:          0  HIT:          0  MISS:          0
LLC WRITEBACK ACCESS:    2011084  HIT:          1  MISS:    2011083
LLC TRANSLATION ACCESS:         65  HIT:         44  MISS:         21
LLC PREFETCH  REQUESTED:          0  ISSUED:          0  USEFUL:          0  USELESS:          0
LLC AVERAGE MISS LATENCY: 695.732 cycles
LLC MSHR FULL EVENTS: 0 MSHR MERGE EVENTS: 0
blocks bypassed = 0
blocks filled to llc = 0

DRAM Statistics
 CHANNEL 0
 RQ ROW_BUFFER_HIT:     227094  ROW_BUFFER_MISS:     898528
 DBUS AVG_CONGESTED_CYCLE:    3.97586
 WQ ROW_BUFFER_HIT:      39565  ROW_BUFFER_MISS:     538528  FULL:     421147


CPU 0 Branch Prediction Accuracy: 98.3866% MPKI: 1.63398 Average ROB Occupancy at Mispredict: 222.016
Branch type MPKI
BRANCH_DIRECT_JUMP: 0
BRANCH_INDIRECT: 0
BRANCH_CONDITIONAL: 1.63397
BRANCH_DIRECT_CALL: 0
BRANCH_INDIRECT_CALL: 0
BRANCH_RETURN: 1e-05

