
*** ChampSim Multicore Out-of-Order Simulator ***

Warmup Instructions: 40000000
Simulation Instructions: 100000000
Number of CPUs: 1
Off-chip DRAM Size: 4 GiB Channels: 1 Width: 64-bit Data Rate: 3200 MT/s

VirtualMemory physical capacity: 4293914624 num_ppages: 1048319
VirtualMemory page size: 4096 log2_page_size: 12

CPU 0 runs ../../../../ICS/traces//Radii_25000M.champsim.xz
CPU 0 Bimodal branch predictor
Basic BTB sets: 1024 ways: 8 indirect buffer size: 4096 RAS size: 64
Heartbeat CPU 0 instructions: 10000000 cycles: 2714989 heartbeat IPC: 3.68326 cumulative IPC: 3.68326 (Simulation time: 0 hr 0 min 42 sec) 
Heartbeat CPU 0 instructions: 20000000 cycles: 5638492 heartbeat IPC: 3.42055 cumulative IPC: 3.54705 (Simulation time: 0 hr 1 min 31 sec) 
Heartbeat CPU 0 instructions: 30000004 cycles: 8596724 heartbeat IPC: 3.3804 cumulative IPC: 3.4897 (Simulation time: 0 hr 2 min 17 sec) 
Heartbeat CPU 0 instructions: 40000002 cycles: 11554678 heartbeat IPC: 3.38071 cumulative IPC: 3.4618 (Simulation time: 0 hr 2 min 47 sec) 

Warmup complete CPU 0 instructions: 40000002 cycles: 11554678 (Simulation time: 0 hr 2 min 47 sec) 

Heartbeat CPU 0 instructions: 50000000 cycles: 69403316 heartbeat IPC: 0.172865 cumulative IPC: 0.172865 (Simulation time: 0 hr 11 min 13 sec) 
Heartbeat CPU 0 instructions: 60000001 cycles: 125667288 heartbeat IPC: 0.177734 cumulative IPC: 0.175265 (Simulation time: 0 hr 14 min 18 sec) 
Heartbeat CPU 0 instructions: 70000003 cycles: 175679244 heartbeat IPC: 0.199952 cumulative IPC: 0.182788 (Simulation time: 0 hr 17 min 13 sec) 
Heartbeat CPU 0 instructions: 80000002 cycles: 220754029 heartbeat IPC: 0.221854 cumulative IPC: 0.191205 (Simulation time: 0 hr 22 min 39 sec) 
Heartbeat CPU 0 instructions: 90000001 cycles: 268278218 heartbeat IPC: 0.210419 cumulative IPC: 0.194762 (Simulation time: 0 hr 26 min 9 sec) 
Heartbeat CPU 0 instructions: 100000004 cycles: 319736848 heartbeat IPC: 0.194331 cumulative IPC: 0.19469 (Simulation time: 0 hr 29 min 4 sec) 
Heartbeat CPU 0 instructions: 110000001 cycles: 365017962 heartbeat IPC: 0.220843 cumulative IPC: 0.19804 (Simulation time: 0 hr 32 min 54 sec) 
Heartbeat CPU 0 instructions: 120000004 cycles: 414364077 heartbeat IPC: 0.20265 cumulative IPC: 0.198605 (Simulation time: 0 hr 34 min 22 sec) 
Heartbeat CPU 0 instructions: 130000004 cycles: 456456099 heartbeat IPC: 0.237575 cumulative IPC: 0.202292 (Simulation time: 0 hr 35 min 56 sec) 
Heartbeat CPU 0 instructions: 140000000 cycles: 511679362 heartbeat IPC: 0.181083 cumulative IPC: 0.19995 (Simulation time: 0 hr 39 min 22 sec) 
Finished CPU 0 instructions: 100000003 cycles: 500124685 cumulative IPC: 0.19995 (Simulation time: 0 hr 39 min 22 sec) 

ChampSim completed all CPUs

Region of Interest Statistics

CPU 0 cumulative IPC: 0.19995 instructions: 100000003 cycles: 500124685
cpu0_DTLB TOTAL     ACCESS:   25125602  HIT:   22336538  MISS:    2789064
cpu0_DTLB LOAD      ACCESS:   18105237  HIT:   15712819  MISS:    2392418
cpu0_DTLB RFO       ACCESS:    7020365  HIT:    6623719  MISS:     396646
cpu0_DTLB PREFETCH  ACCESS:          0  HIT:          0  MISS:          0
cpu0_DTLB WRITEBACK ACCESS:          0  HIT:          0  MISS:          0
cpu0_DTLB TRANSLATION ACCESS:          0  HIT:          0  MISS:          0
cpu0_DTLB PREFETCH  REQUESTED:          0  ISSUED:          0  USEFUL:          0  USELESS:          0
cpu0_DTLB AVERAGE MISS LATENCY: 248.023 cycles
cpu0_DTLB MSHR FULL EVENTS: 56292353 MSHR MERGE EVENTS: 534019
cpu0_ITLB TOTAL     ACCESS:    7829248  HIT:    7829247  MISS:          1
cpu0_ITLB LOAD      ACCESS:    7829248  HIT:    7829247  MISS:          1
cpu0_ITLB RFO       ACCESS:          0  HIT:          0  MISS:          0
cpu0_ITLB PREFETCH  ACCESS:          0  HIT:          0  MISS:          0
cpu0_ITLB WRITEBACK ACCESS:          0  HIT:          0  MISS:          0
cpu0_ITLB TRANSLATION ACCESS:          0  HIT:          0  MISS:          0
cpu0_ITLB PREFETCH  REQUESTED:          0  ISSUED:          0  USEFUL:          0  USELESS:          0
cpu0_ITLB AVERAGE MISS LATENCY: 2259 cycles
cpu0_ITLB MSHR FULL EVENTS: 0 MSHR MERGE EVENTS: 0
cpu0_L1I TOTAL     ACCESS:       1202  HIT:       1173  MISS:         29
cpu0_L1I LOAD      ACCESS:       1202  HIT:       1173  MISS:         29
cpu0_L1I RFO       ACCESS:          0  HIT:          0  MISS:          0
cpu0_L1I PREFETCH  ACCESS:          0  HIT:          0  MISS:          0
cpu0_L1I WRITEBACK ACCESS:          0  HIT:          0  MISS:          0
cpu0_L1I TRANSLATION ACCESS:          0  HIT:          0  MISS:          0
cpu0_L1I PREFETCH  REQUESTED:          0  ISSUED:          0  USEFUL:          0  USELESS:          0
cpu0_L1I AVERAGE MISS LATENCY: 349.207 cycles
cpu0_L1I MSHR FULL EVENTS: 0 MSHR MERGE EVENTS: 0
cpu0_STLB TOTAL     ACCESS:    2789065  HIT:     542242  MISS:    2246823
cpu0_STLB LOAD      ACCESS:    2392419  HIT:     461566  MISS:    1930853
cpu0_STLB RFO       ACCESS:     396646  HIT:      80676  MISS:     315970
cpu0_STLB PREFETCH  ACCESS:          0  HIT:          0  MISS:          0
cpu0_STLB WRITEBACK ACCESS:          0  HIT:          0  MISS:          0
cpu0_STLB TRANSLATION ACCESS:          0  HIT:          0  MISS:          0
cpu0_STLB PREFETCH  REQUESTED:          0  ISSUED:          0  USEFUL:          0  USELESS:          0
cpu0_STLB AVERAGE MISS LATENCY: 297.795 cycles
cpu0_STLB MSHR FULL EVENTS: 0 MSHR MERGE EVENTS: 0
cpu0_L1D TOTAL     ACCESS:   23229695  HIT:   18197215  MISS:    5032480
cpu0_L1D LOAD      ACCESS:   15179536  HIT:   11137503  MISS:    4042033
cpu0_L1D RFO       ACCESS:    6330017  HIT:    5343524  MISS:     986493
cpu0_L1D PREFETCH  ACCESS:          0  HIT:          0  MISS:          0
cpu0_L1D WRITEBACK ACCESS:          0  HIT:          0  MISS:          0
cpu0_L1D TRANSLATION ACCESS:    1720142  HIT:    1716188  MISS:       3954
cpu0_L1D PREFETCH  REQUESTED:          0  ISSUED:          0  USEFUL:          0  USELESS:          0
cpu0_L1D AVERAGE MISS LATENCY: 587.632 cycles
cpu0_L1D MSHR FULL EVENTS: 190453544 MSHR MERGE EVENTS: 5068320
cpu0_L2C TOTAL     ACCESS:    6819478  HIT:    1991634  MISS:    4827833
cpu0_L2C LOAD      ACCESS:    4042062  HIT:     185720  MISS:    3856342
cpu0_L2C RFO       ACCESS:     986493  HIT:      15345  MISS:     971148
cpu0_L2C PREFETCH  ACCESS:          0  HIT:          0  MISS:          0
cpu0_L2C WRITEBACK ACCESS:    1786969  HIT:    1786958  MISS:         11
cpu0_L2C TRANSLATION ACCESS:       3954  HIT:       3611  MISS:        343
cpu0_L2C PREFETCH  REQUESTED:          0  ISSUED:          0  USEFUL:          0  USELESS:          0
cpu0_L2C AVERAGE MISS LATENCY: 602.049 cycles
cpu0_L2C MSHR FULL EVENTS: 0 MSHR MERGE EVENTS: 0
LLC TOTAL     ACCESS:    9655672  HIT:     331703  MISS:    4496128
LLC LOAD      ACCESS:    3856340  HIT:     294850  MISS:    3561490
LLC RFO       ACCESS:     971145  HIT:      36690  MISS:     934455
LLC PREFETCH  ACCESS:          0  HIT:          0  MISS:          0
LLC WRITEBACK ACCESS:    4827844  HIT:          3  MISS:    4827841
LLC TRANSLATION ACCESS:        343  HIT:        160  MISS:        183
LLC PREFETCH  REQUESTED:          0  ISSUED:          0  USEFUL:          0  USELESS:          0
LLC AVERAGE MISS LATENCY: 624.916 cycles
LLC MSHR FULL EVENTS: 0 MSHR MERGE EVENTS: 0
blocks bypassed = 0
blocks filled to llc = 0

DRAM Statistics
 CHANNEL 0
 RQ ROW_BUFFER_HIT:     125606  ROW_BUFFER_MISS:    4370345
 DBUS AVG_CONGESTED_CYCLE:    3.97368
 WQ ROW_BUFFER_HIT:      16162  ROW_BUFFER_MISS:    1579966  FULL:          0


CPU 0 Branch Prediction Accuracy: 88.5322% MPKI: 18.7745 Average ROB Occupancy at Mispredict: 30.8514
Branch type MPKI
BRANCH_DIRECT_JUMP: 0.0001
BRANCH_INDIRECT: 0
BRANCH_CONDITIONAL: 18.7742
BRANCH_DIRECT_CALL: 9e-05
BRANCH_INDIRECT_CALL: 0
BRANCH_RETURN: 0.00011

