
*** ChampSim Multicore Out-of-Order Simulator ***

Warmup Instructions: 40000000
Simulation Instructions: 100000000
Number of CPUs: 1
Off-chip DRAM Size: 4 GiB Channels: 1 Width: 64-bit Data Rate: 3200 MT/s

VirtualMemory physical capacity: 4293914624 num_ppages: 1048319
VirtualMemory page size: 4096 log2_page_size: 12

CPU 0 runs ../../../../ICS/traces//PageRankDelta_35250M.champsim.xz
CPU 0 Bimodal branch predictor
Basic BTB sets: 1024 ways: 8 indirect buffer size: 4096 RAS size: 64
Heartbeat CPU 0 instructions: 10000000 cycles: 2500056 heartbeat IPC: 3.99991 cumulative IPC: 3.99991 (Simulation time: 0 hr 0 min 41 sec) 
Heartbeat CPU 0 instructions: 20000000 cycles: 5000056 heartbeat IPC: 4 cumulative IPC: 3.99996 (Simulation time: 0 hr 1 min 23 sec) 
Heartbeat CPU 0 instructions: 30000000 cycles: 7500056 heartbeat IPC: 4 cumulative IPC: 3.99997 (Simulation time: 0 hr 2 min 5 sec) 
Heartbeat CPU 0 instructions: 40000000 cycles: 10000056 heartbeat IPC: 4 cumulative IPC: 3.99998 (Simulation time: 0 hr 2 min 48 sec) 

Warmup complete CPU 0 instructions: 40000004 cycles: 10000057 (Simulation time: 0 hr 2 min 48 sec) 

Heartbeat CPU 0 instructions: 50000003 cycles: 40597001 heartbeat IPC: 0.32683 cumulative IPC: 0.32683 (Simulation time: 0 hr 4 min 28 sec) 
Heartbeat CPU 0 instructions: 60000003 cycles: 59565885 heartbeat IPC: 0.527179 cumulative IPC: 0.403504 (Simulation time: 0 hr 5 min 41 sec) 
Heartbeat CPU 0 instructions: 70000001 cycles: 64539952 heartbeat IPC: 2.01043 cumulative IPC: 0.550056 (Simulation time: 0 hr 6 min 36 sec) 
Heartbeat CPU 0 instructions: 80000002 cycles: 81208968 heartbeat IPC: 0.599916 cumulative IPC: 0.561727 (Simulation time: 0 hr 8 min 59 sec) 
Heartbeat CPU 0 instructions: 90000002 cycles: 117782598 heartbeat IPC: 0.273421 cumulative IPC: 0.463897 (Simulation time: 0 hr 13 min 9 sec) 
Heartbeat CPU 0 instructions: 100000002 cycles: 200377874 heartbeat IPC: 0.121072 cumulative IPC: 0.315163 (Simulation time: 0 hr 20 min 25 sec) 
Heartbeat CPU 0 instructions: 110000001 cycles: 252200838 heartbeat IPC: 0.192965 cumulative IPC: 0.289016 (Simulation time: 0 hr 25 min 5 sec) 
Heartbeat CPU 0 instructions: 120000001 cycles: 266421683 heartbeat IPC: 0.703193 cumulative IPC: 0.311986 (Simulation time: 0 hr 26 min 44 sec) 
Heartbeat CPU 0 instructions: 130000002 cycles: 280863725 heartbeat IPC: 0.692423 cumulative IPC: 0.33227 (Simulation time: 0 hr 28 min 23 sec) 
Heartbeat CPU 0 instructions: 140000002 cycles: 290065577 heartbeat IPC: 1.08674 cumulative IPC: 0.357059 (Simulation time: 0 hr 29 min 29 sec) 
Finished CPU 0 instructions: 100000003 cycles: 280065521 cumulative IPC: 0.357059 (Simulation time: 0 hr 29 min 29 sec) 

ChampSim completed all CPUs

Region of Interest Statistics

CPU 0 cumulative IPC: 0.357059 instructions: 100000003 cycles: 280065521
cpu0_DTLB TOTAL     ACCESS:   20530330  HIT:   20491766  MISS:      38564
cpu0_DTLB LOAD      ACCESS:   14566203  HIT:   14545054  MISS:      21149
cpu0_DTLB RFO       ACCESS:    5964127  HIT:    5946712  MISS:      17415
cpu0_DTLB PREFETCH  ACCESS:          0  HIT:          0  MISS:          0
cpu0_DTLB WRITEBACK ACCESS:          0  HIT:          0  MISS:          0
cpu0_DTLB TRANSLATION ACCESS:          0  HIT:          0  MISS:          0
cpu0_DTLB PREFETCH  REQUESTED:          0  ISSUED:          0  USEFUL:          0  USELESS:          0
cpu0_DTLB AVERAGE MISS LATENCY: 122.148 cycles
cpu0_DTLB MSHR FULL EVENTS: 0 MSHR MERGE EVENTS: 196159
cpu0_ITLB TOTAL     ACCESS:    1770793  HIT:    1770784  MISS:          9
cpu0_ITLB LOAD      ACCESS:    1770793  HIT:    1770784  MISS:          9
cpu0_ITLB RFO       ACCESS:          0  HIT:          0  MISS:          0
cpu0_ITLB PREFETCH  ACCESS:          0  HIT:          0  MISS:          0
cpu0_ITLB WRITEBACK ACCESS:          0  HIT:          0  MISS:          0
cpu0_ITLB TRANSLATION ACCESS:          0  HIT:          0  MISS:          0
cpu0_ITLB PREFETCH  REQUESTED:          0  ISSUED:          0  USEFUL:          0  USELESS:          0
cpu0_ITLB AVERAGE MISS LATENCY: 340.778 cycles
cpu0_ITLB MSHR FULL EVENTS: 0 MSHR MERGE EVENTS: 0
cpu0_L1I TOTAL     ACCESS:        306  HIT:        186  MISS:        120
cpu0_L1I LOAD      ACCESS:        306  HIT:        186  MISS:        120
cpu0_L1I RFO       ACCESS:          0  HIT:          0  MISS:          0
cpu0_L1I PREFETCH  ACCESS:          0  HIT:          0  MISS:          0
cpu0_L1I WRITEBACK ACCESS:          0  HIT:          0  MISS:          0
cpu0_L1I TRANSLATION ACCESS:          0  HIT:          0  MISS:          0
cpu0_L1I PREFETCH  REQUESTED:          0  ISSUED:          0  USEFUL:          0  USELESS:          0
cpu0_L1I AVERAGE MISS LATENCY: 219.158 cycles
cpu0_L1I MSHR FULL EVENTS: 0 MSHR MERGE EVENTS: 0
cpu0_STLB TOTAL     ACCESS:      38573  HIT:         36  MISS:      38537
cpu0_STLB LOAD      ACCESS:      21158  HIT:         31  MISS:      21127
cpu0_STLB RFO       ACCESS:      17415  HIT:          5  MISS:      17410
cpu0_STLB PREFETCH  ACCESS:          0  HIT:          0  MISS:          0
cpu0_STLB WRITEBACK ACCESS:          0  HIT:          0  MISS:          0
cpu0_STLB TRANSLATION ACCESS:          0  HIT:          0  MISS:          0
cpu0_STLB PREFETCH  REQUESTED:          0  ISSUED:          0  USEFUL:          0  USELESS:          0
cpu0_STLB AVERAGE MISS LATENCY: 114.304 cycles
cpu0_STLB MSHR FULL EVENTS: 0 MSHR MERGE EVENTS: 0
cpu0_L1D TOTAL     ACCESS:    9517781  HIT:    7053902  MISS:    2463879
cpu0_L1D LOAD      ACCESS:    6974769  HIT:    5624892  MISS:    1349877
cpu0_L1D RFO       ACCESS:    2504475  HIT:    1390881  MISS:    1113594
cpu0_L1D PREFETCH  ACCESS:          0  HIT:          0  MISS:          0
cpu0_L1D WRITEBACK ACCESS:          0  HIT:          0  MISS:          0
cpu0_L1D TRANSLATION ACCESS:      38537  HIT:      38129  MISS:        408
cpu0_L1D PREFETCH  REQUESTED:          0  ISSUED:          0  USEFUL:          0  USELESS:          0
cpu0_L1D AVERAGE MISS LATENCY: 512.806 cycles
cpu0_L1D MSHR FULL EVENTS: 57496339 MSHR MERGE EVENTS: 7570310
cpu0_L2C TOTAL     ACCESS:    3665700  HIT:    1202104  MISS:    2463596
cpu0_L2C LOAD      ACCESS:    1349997  HIT:         40  MISS:    1349957
cpu0_L2C RFO       ACCESS:    1113594  HIT:          0  MISS:    1113594
cpu0_L2C PREFETCH  ACCESS:          0  HIT:          0  MISS:          0
cpu0_L2C WRITEBACK ACCESS:    1201701  HIT:    1201701  MISS:          0
cpu0_L2C TRANSLATION ACCESS:        408  HIT:        363  MISS:         45
cpu0_L2C PREFETCH  REQUESTED:          0  ISSUED:          0  USEFUL:          0  USELESS:          0
cpu0_L2C AVERAGE MISS LATENCY: 502.868 cycles
cpu0_L2C MSHR FULL EVENTS: 0 MSHR MERGE EVENTS: 0
LLC TOTAL     ACCESS:    4927192  HIT:       1051  MISS:    2462545
LLC LOAD      ACCESS:    1349957  HIT:       1040  MISS:    1348917
LLC RFO       ACCESS:    1113594  HIT:          3  MISS:    1113591
LLC PREFETCH  ACCESS:          0  HIT:          0  MISS:          0
LLC WRITEBACK ACCESS:    2463596  HIT:          0  MISS:    2463596
LLC TRANSLATION ACCESS:         45  HIT:          8  MISS:         37
LLC PREFETCH  REQUESTED:          0  ISSUED:          0  USEFUL:          0  USELESS:          0
LLC AVERAGE MISS LATENCY: 483.073 cycles
LLC MSHR FULL EVENTS: 0 MSHR MERGE EVENTS: 0
blocks bypassed = 0
blocks filled to llc = 0

DRAM Statistics
 CHANNEL 0
 RQ ROW_BUFFER_HIT:     237718  ROW_BUFFER_MISS:    2224819
 DBUS AVG_CONGESTED_CYCLE:    3.98903
 WQ ROW_BUFFER_HIT:     200903  ROW_BUFFER_MISS:     995193  FULL:          0


CPU 0 Branch Prediction Accuracy: 98.8599% MPKI: 2.49073 Average ROB Occupancy at Mispredict: 49.6747
Branch type MPKI
BRANCH_DIRECT_JUMP: 0.00026
BRANCH_INDIRECT: 0
BRANCH_CONDITIONAL: 2.49009
BRANCH_DIRECT_CALL: 0.0002
BRANCH_INDIRECT_CALL: 0
BRANCH_RETURN: 0.00018

