
*** ChampSim Multicore Out-of-Order Simulator ***

Warmup Instructions: 40000000
Simulation Instructions: 100000000
Number of CPUs: 1
Off-chip DRAM Size: 4 GiB Channels: 1 Width: 64-bit Data Rate: 3200 MT/s

VirtualMemory physical capacity: 4293914624 num_ppages: 1048319
VirtualMemory page size: 4096 log2_page_size: 12

CPU 0 runs ../../../../ICS/traces//Radii_36000M.champsim.xz
CPU 0 Bimodal branch predictor
Basic BTB sets: 1024 ways: 8 indirect buffer size: 4096 RAS size: 64
Heartbeat CPU 0 instructions: 10000000 cycles: 3369148 heartbeat IPC: 2.96811 cumulative IPC: 2.96811 (Simulation time: 0 hr 1 min 11 sec) 
Heartbeat CPU 0 instructions: 20000002 cycles: 6754470 heartbeat IPC: 2.95393 cumulative IPC: 2.961 (Simulation time: 0 hr 2 min 30 sec) 
Heartbeat CPU 0 instructions: 30000000 cycles: 10167992 heartbeat IPC: 2.92952 cumulative IPC: 2.95044 (Simulation time: 0 hr 3 min 27 sec) 
Heartbeat CPU 0 instructions: 40000000 cycles: 13584254 heartbeat IPC: 2.92718 cumulative IPC: 2.94459 (Simulation time: 0 hr 4 min 23 sec) 

Warmup complete CPU 0 instructions: 40000002 cycles: 13584255 (Simulation time: 0 hr 4 min 23 sec) 

Heartbeat CPU 0 instructions: 50000003 cycles: 56598225 heartbeat IPC: 0.232483 cumulative IPC: 0.232483 (Simulation time: 0 hr 6 min 9 sec) 
Heartbeat CPU 0 instructions: 60000003 cycles: 97044135 heartbeat IPC: 0.247244 cumulative IPC: 0.239636 (Simulation time: 0 hr 7 min 54 sec) 
Heartbeat CPU 0 instructions: 70000003 cycles: 143993161 heartbeat IPC: 0.212997 cumulative IPC: 0.230046 (Simulation time: 0 hr 9 min 47 sec) 
Heartbeat CPU 0 instructions: 80000004 cycles: 195747537 heartbeat IPC: 0.19322 cumulative IPC: 0.219583 (Simulation time: 0 hr 11 min 46 sec) 
Heartbeat CPU 0 instructions: 90000003 cycles: 249115199 heartbeat IPC: 0.187379 cumulative IPC: 0.212286 (Simulation time: 0 hr 13 min 48 sec) 
Heartbeat CPU 0 instructions: 100000004 cycles: 301382479 heartbeat IPC: 0.191324 cumulative IPC: 0.208479 (Simulation time: 0 hr 15 min 50 sec) 
Heartbeat CPU 0 instructions: 110000001 cycles: 353692209 heartbeat IPC: 0.191169 cumulative IPC: 0.205817 (Simulation time: 0 hr 17 min 32 sec) 
Heartbeat CPU 0 instructions: 120000002 cycles: 403697873 heartbeat IPC: 0.199977 cumulative IPC: 0.205068 (Simulation time: 0 hr 19 min 14 sec) 
Heartbeat CPU 0 instructions: 130000001 cycles: 451062774 heartbeat IPC: 0.211127 cumulative IPC: 0.205724 (Simulation time: 0 hr 21 min 5 sec) 
Heartbeat CPU 0 instructions: 140000002 cycles: 464912157 heartbeat IPC: 0.722054 cumulative IPC: 0.221568 (Simulation time: 0 hr 22 min 8 sec) 
Finished CPU 0 instructions: 100000000 cycles: 451327902 cumulative IPC: 0.221568 (Simulation time: 0 hr 22 min 8 sec) 

ChampSim completed all CPUs

Region of Interest Statistics

CPU 0 cumulative IPC: 0.221568 instructions: 100000000 cycles: 451327902
cpu0_DTLB TOTAL     ACCESS:   27857382  HIT:   25148711  MISS:    2708671
cpu0_DTLB LOAD      ACCESS:   23348373  HIT:   20660639  MISS:    2687734
cpu0_DTLB RFO       ACCESS:    4509009  HIT:    4488072  MISS:      20937
cpu0_DTLB PREFETCH  ACCESS:          0  HIT:          0  MISS:          0
cpu0_DTLB WRITEBACK ACCESS:          0  HIT:          0  MISS:          0
cpu0_DTLB TRANSLATION ACCESS:          0  HIT:          0  MISS:          0
cpu0_DTLB PREFETCH  REQUESTED:          0  ISSUED:          0  USEFUL:          0  USELESS:          0
cpu0_DTLB AVERAGE MISS LATENCY: 12.1933 cycles
cpu0_DTLB MSHR FULL EVENTS: 28232 MSHR MERGE EVENTS: 117269
cpu0_ITLB TOTAL     ACCESS:   10151298  HIT:   10151292  MISS:          6
cpu0_ITLB LOAD      ACCESS:   10151298  HIT:   10151292  MISS:          6
cpu0_ITLB RFO       ACCESS:          0  HIT:          0  MISS:          0
cpu0_ITLB PREFETCH  ACCESS:          0  HIT:          0  MISS:          0
cpu0_ITLB WRITEBACK ACCESS:          0  HIT:          0  MISS:          0
cpu0_ITLB TRANSLATION ACCESS:          0  HIT:          0  MISS:          0
cpu0_ITLB PREFETCH  REQUESTED:          0  ISSUED:          0  USEFUL:          0  USELESS:          0
cpu0_ITLB AVERAGE MISS LATENCY: 280 cycles
cpu0_ITLB MSHR FULL EVENTS: 0 MSHR MERGE EVENTS: 0
cpu0_L1I TOTAL     ACCESS:        106  HIT:         55  MISS:         51
cpu0_L1I LOAD      ACCESS:        106  HIT:         55  MISS:         51
cpu0_L1I RFO       ACCESS:          0  HIT:          0  MISS:          0
cpu0_L1I PREFETCH  ACCESS:          0  HIT:          0  MISS:          0
cpu0_L1I WRITEBACK ACCESS:          0  HIT:          0  MISS:          0
cpu0_L1I TRANSLATION ACCESS:          0  HIT:          0  MISS:          0
cpu0_L1I PREFETCH  REQUESTED:          0  ISSUED:          0  USEFUL:          0  USELESS:          0
cpu0_L1I AVERAGE MISS LATENCY: 177.51 cycles
cpu0_L1I MSHR FULL EVENTS: 0 MSHR MERGE EVENTS: 0
cpu0_STLB TOTAL     ACCESS:    2708677  HIT:    2322775  MISS:     385902
cpu0_STLB LOAD      ACCESS:    2687740  HIT:    2305797  MISS:     381943
cpu0_STLB RFO       ACCESS:      20937  HIT:      16978  MISS:       3959
cpu0_STLB PREFETCH  ACCESS:          0  HIT:          0  MISS:          0
cpu0_STLB WRITEBACK ACCESS:          0  HIT:          0  MISS:          0
cpu0_STLB TRANSLATION ACCESS:          0  HIT:          0  MISS:          0
cpu0_STLB PREFETCH  REQUESTED:          0  ISSUED:          0  USEFUL:          0  USELESS:          0
cpu0_STLB AVERAGE MISS LATENCY: 22.7317 cycles
cpu0_STLB MSHR FULL EVENTS: 0 MSHR MERGE EVENTS: 0
cpu0_L1D TOTAL     ACCESS:   26400389  HIT:   21858485  MISS:    4541904
cpu0_L1D LOAD      ACCESS:   21138739  HIT:   16635393  MISS:    4503346
cpu0_L1D RFO       ACCESS:    4886738  HIT:    4858732  MISS:      28006
cpu0_L1D PREFETCH  ACCESS:          0  HIT:          0  MISS:          0
cpu0_L1D WRITEBACK ACCESS:          0  HIT:          0  MISS:          0
cpu0_L1D TRANSLATION ACCESS:     374912  HIT:     364360  MISS:      10552
cpu0_L1D PREFETCH  REQUESTED:          0  ISSUED:          0  USEFUL:          0  USELESS:          0
cpu0_L1D AVERAGE MISS LATENCY: 128.236 cycles
cpu0_L1D MSHR FULL EVENTS: 314969 MSHR MERGE EVENTS: 1199330
cpu0_L2C TOTAL     ACCESS:    4828169  HIT:     896423  MISS:    3931737
cpu0_L2C LOAD      ACCESS:    4503397  HIT:     599906  MISS:    3903491
cpu0_L2C RFO       ACCESS:      28006  HIT:         11  MISS:      27995
cpu0_L2C PREFETCH  ACCESS:          0  HIT:          0  MISS:          0
cpu0_L2C WRITEBACK ACCESS:     286214  HIT:     286205  MISS:          9
cpu0_L2C TRANSLATION ACCESS:      10552  HIT:      10301  MISS:        251
cpu0_L2C PREFETCH  REQUESTED:          0  ISSUED:          0  USEFUL:          0  USELESS:          0
cpu0_L2C AVERAGE MISS LATENCY: 136.347 cycles
cpu0_L2C MSHR FULL EVENTS: 0 MSHR MERGE EVENTS: 0
LLC TOTAL     ACCESS:    7863480  HIT:    1308061  MISS:    2623676
LLC LOAD      ACCESS:    3903489  HIT:    1307856  MISS:    2595633
LLC RFO       ACCESS:      27995  HIT:          0  MISS:      27995
LLC PREFETCH  ACCESS:          0  HIT:          0  MISS:          0
LLC WRITEBACK ACCESS:    3931745  HIT:          2  MISS:    3931743
LLC TRANSLATION ACCESS:        251  HIT:        203  MISS:         48
LLC PREFETCH  REQUESTED:          0  ISSUED:          0  USEFUL:          0  USELESS:          0
LLC AVERAGE MISS LATENCY: 173.854 cycles
LLC MSHR FULL EVENTS: 0 MSHR MERGE EVENTS: 0
blocks bypassed = 0
blocks filled to llc = 0

DRAM Statistics
 CHANNEL 0
 RQ ROW_BUFFER_HIT:      79496  ROW_BUFFER_MISS:    2544181
 DBUS AVG_CONGESTED_CYCLE:    3.67136
 WQ ROW_BUFFER_HIT:     203312  ROW_BUFFER_MISS:      83661  FULL:          0


CPU 0 Branch Prediction Accuracy: 85.1756% MPKI: 36.0741 Average ROB Occupancy at Mispredict: 22.3183
Branch type MPKI
BRANCH_DIRECT_JUMP: 9e-05
BRANCH_INDIRECT: 0
BRANCH_CONDITIONAL: 36.0739
BRANCH_DIRECT_CALL: 7e-05
BRANCH_INDIRECT_CALL: 0
BRANCH_RETURN: 6e-05

