
*** ChampSim Multicore Out-of-Order Simulator ***

Warmup Instructions: 40000000
Simulation Instructions: 100000000
Number of CPUs: 1
Off-chip DRAM Size: 4 GiB Channels: 1 Width: 64-bit Data Rate: 3200 MT/s

VirtualMemory physical capacity: 4293914624 num_ppages: 1048319
VirtualMemory page size: 4096 log2_page_size: 12

CPU 0 runs ../../../../ICS/traces//bfs-3.trace.gz
CPU 0 Bimodal branch predictor
Basic BTB sets: 1024 ways: 8 indirect buffer size: 4096 RAS size: 64
Heartbeat CPU 0 instructions: 10000003 cycles: 2500170 heartbeat IPC: 3.99973 cumulative IPC: 3.99973 (Simulation time: 0 hr 0 min 29 sec) 
Heartbeat CPU 0 instructions: 20000000 cycles: 5135342 heartbeat IPC: 3.79482 cumulative IPC: 3.89458 (Simulation time: 0 hr 1 min 7 sec) 
Heartbeat CPU 0 instructions: 30000002 cycles: 7762178 heartbeat IPC: 3.80686 cumulative IPC: 3.86489 (Simulation time: 0 hr 1 min 43 sec) 
Heartbeat CPU 0 instructions: 40000000 cycles: 10388439 heartbeat IPC: 3.80769 cumulative IPC: 3.85043 (Simulation time: 0 hr 2 min 20 sec) 

Warmup complete CPU 0 instructions: 40000005 cycles: 10388440 (Simulation time: 0 hr 2 min 20 sec) 

Heartbeat CPU 0 instructions: 50000000 cycles: 46588311 heartbeat IPC: 0.276244 cumulative IPC: 0.276244 (Simulation time: 0 hr 3 min 35 sec) 
Heartbeat CPU 0 instructions: 60000000 cycles: 73338559 heartbeat IPC: 0.373828 cumulative IPC: 0.317712 (Simulation time: 0 hr 4 min 40 sec) 
Heartbeat CPU 0 instructions: 70000003 cycles: 90850759 heartbeat IPC: 0.571031 cumulative IPC: 0.372845 (Simulation time: 0 hr 5 min 28 sec) 
Heartbeat CPU 0 instructions: 80000001 cycles: 93437201 heartbeat IPC: 3.86631 cumulative IPC: 0.481645 (Simulation time: 0 hr 5 min 59 sec) 
Heartbeat CPU 0 instructions: 90000002 cycles: 102104968 heartbeat IPC: 1.1537 cumulative IPC: 0.545158 (Simulation time: 0 hr 6 min 35 sec) 
Heartbeat CPU 0 instructions: 100000000 cycles: 118729844 heartbeat IPC: 0.601508 cumulative IPC: 0.553805 (Simulation time: 0 hr 7 min 22 sec) 
Heartbeat CPU 0 instructions: 110000002 cycles: 137673559 heartbeat IPC: 0.52788 cumulative IPC: 0.549946 (Simulation time: 0 hr 8 min 19 sec) 
Heartbeat CPU 0 instructions: 120000001 cycles: 161560849 heartbeat IPC: 0.418633 cumulative IPC: 0.529197 (Simulation time: 0 hr 9 min 16 sec) 
Heartbeat CPU 0 instructions: 130000003 cycles: 186459757 heartbeat IPC: 0.401624 cumulative IPC: 0.511156 (Simulation time: 0 hr 10 min 10 sec) 
Heartbeat CPU 0 instructions: 140000000 cycles: 196502428 heartbeat IPC: 0.995751 cumulative IPC: 0.537305 (Simulation time: 0 hr 10 min 44 sec) 
Finished CPU 0 instructions: 100000000 cycles: 186113990 cumulative IPC: 0.537305 (Simulation time: 0 hr 10 min 44 sec) 

ChampSim completed all CPUs

Region of Interest Statistics

CPU 0 cumulative IPC: 0.537305 instructions: 100000000 cycles: 186113990
cpu0_DTLB TOTAL     ACCESS:   20840190  HIT:   20679001  MISS:     161189
cpu0_DTLB LOAD      ACCESS:   17959555  HIT:   17804294  MISS:     155261
cpu0_DTLB RFO       ACCESS:    2880635  HIT:    2874707  MISS:       5928
cpu0_DTLB PREFETCH  ACCESS:          0  HIT:          0  MISS:          0
cpu0_DTLB WRITEBACK ACCESS:          0  HIT:          0  MISS:          0
cpu0_DTLB TRANSLATION ACCESS:          0  HIT:          0  MISS:          0
cpu0_DTLB PREFETCH  REQUESTED:          0  ISSUED:          0  USEFUL:          0  USELESS:          0
cpu0_DTLB AVERAGE MISS LATENCY: 17.7822 cycles
cpu0_DTLB MSHR FULL EVENTS: 946 MSHR MERGE EVENTS: 43201
cpu0_ITLB TOTAL     ACCESS:   10485890  HIT:   10485890  MISS:          0
cpu0_ITLB LOAD      ACCESS:   10485890  HIT:   10485890  MISS:          0
cpu0_ITLB RFO       ACCESS:          0  HIT:          0  MISS:          0
cpu0_ITLB PREFETCH  ACCESS:          0  HIT:          0  MISS:          0
cpu0_ITLB WRITEBACK ACCESS:          0  HIT:          0  MISS:          0
cpu0_ITLB TRANSLATION ACCESS:          0  HIT:          0  MISS:          0
cpu0_ITLB PREFETCH  REQUESTED:          0  ISSUED:          0  USEFUL:          0  USELESS:          0
cpu0_ITLB AVERAGE MISS LATENCY: -nan cycles
cpu0_ITLB MSHR FULL EVENTS: 0 MSHR MERGE EVENTS: 0
cpu0_L1I TOTAL     ACCESS:       1370  HIT:       1353  MISS:         17
cpu0_L1I LOAD      ACCESS:       1370  HIT:       1353  MISS:         17
cpu0_L1I RFO       ACCESS:          0  HIT:          0  MISS:          0
cpu0_L1I PREFETCH  ACCESS:          0  HIT:          0  MISS:          0
cpu0_L1I WRITEBACK ACCESS:          0  HIT:          0  MISS:          0
cpu0_L1I TRANSLATION ACCESS:          0  HIT:          0  MISS:          0
cpu0_L1I PREFETCH  REQUESTED:          0  ISSUED:          0  USEFUL:          0  USELESS:          0
cpu0_L1I AVERAGE MISS LATENCY: 213.706 cycles
cpu0_L1I MSHR FULL EVENTS: 0 MSHR MERGE EVENTS: 0
cpu0_STLB TOTAL     ACCESS:     161189  HIT:      77927  MISS:      83262
cpu0_STLB LOAD      ACCESS:     155261  HIT:      73265  MISS:      81996
cpu0_STLB RFO       ACCESS:       5928  HIT:       4662  MISS:       1266
cpu0_STLB PREFETCH  ACCESS:          0  HIT:          0  MISS:          0
cpu0_STLB WRITEBACK ACCESS:          0  HIT:          0  MISS:          0
cpu0_STLB TRANSLATION ACCESS:          0  HIT:          0  MISS:          0
cpu0_STLB PREFETCH  REQUESTED:          0  ISSUED:          0  USEFUL:          0  USELESS:          0
cpu0_STLB AVERAGE MISS LATENCY: 17.9011 cycles
cpu0_STLB MSHR FULL EVENTS: 0 MSHR MERGE EVENTS: 0
cpu0_L1D TOTAL     ACCESS:   17162059  HIT:   14444003  MISS:    2718056
cpu0_L1D LOAD      ACCESS:   13918399  HIT:   11299967  MISS:    2618432
cpu0_L1D RFO       ACCESS:    3161022  HIT:    3063053  MISS:      97969
cpu0_L1D PREFETCH  ACCESS:          0  HIT:          0  MISS:          0
cpu0_L1D WRITEBACK ACCESS:          0  HIT:          0  MISS:          0
cpu0_L1D TRANSLATION ACCESS:      82638  HIT:      80983  MISS:       1655
cpu0_L1D PREFETCH  REQUESTED:          0  ISSUED:          0  USEFUL:          0  USELESS:          0
cpu0_L1D AVERAGE MISS LATENCY: 39.9808 cycles
cpu0_L1D MSHR FULL EVENTS: 171837 MSHR MERGE EVENTS: 713963
cpu0_L2C TOTAL     ACCESS:    3169796  HIT:    1258387  MISS:    1911394
cpu0_L2C LOAD      ACCESS:    2618438  HIT:     795093  MISS:    1823345
cpu0_L2C RFO       ACCESS:      97969  HIT:      10051  MISS:      87918
cpu0_L2C PREFETCH  ACCESS:          0  HIT:          0  MISS:          0
cpu0_L2C WRITEBACK ACCESS:     451734  HIT:     451719  MISS:         15
cpu0_L2C TRANSLATION ACCESS:       1655  HIT:       1524  MISS:        131
cpu0_L2C PREFETCH  REQUESTED:          0  ISSUED:          0  USEFUL:          0  USELESS:          0
cpu0_L2C AVERAGE MISS LATENCY: 42.0907 cycles
cpu0_L2C MSHR FULL EVENTS: 0 MSHR MERGE EVENTS: 0
LLC TOTAL     ACCESS:    3822800  HIT:    1605004  MISS:     306389
LLC LOAD      ACCESS:    1823343  HIT:    1527883  MISS:     295460
LLC RFO       ACCESS:      87917  HIT:      76997  MISS:      10920
LLC PREFETCH  ACCESS:          0  HIT:          0  MISS:          0
LLC WRITEBACK ACCESS:    1911409  HIT:          2  MISS:    1911407
LLC TRANSLATION ACCESS:        131  HIT:        122  MISS:          9
LLC PREFETCH  REQUESTED:          0  ISSUED:          0  USEFUL:          0  USELESS:          0
LLC AVERAGE MISS LATENCY: 132.573 cycles
LLC MSHR FULL EVENTS: 0 MSHR MERGE EVENTS: 0
blocks bypassed = 0
blocks filled to llc = 0

DRAM Statistics
 CHANNEL 0
 RQ ROW_BUFFER_HIT:      99922  ROW_BUFFER_MISS:     206467
 DBUS AVG_CONGESTED_CYCLE:    3.73403
 WQ ROW_BUFFER_HIT:       6261  ROW_BUFFER_MISS:      16579  FULL:          0


CPU 0 Branch Prediction Accuracy: 84.0197% MPKI: 33.7857 Average ROB Occupancy at Mispredict: 9.21826
Branch type MPKI
BRANCH_DIRECT_JUMP: 6e-05
BRANCH_INDIRECT: 1e-05
BRANCH_CONDITIONAL: 33.7854
BRANCH_DIRECT_CALL: 0.00013
BRANCH_INDIRECT_CALL: 2e-05
BRANCH_RETURN: 0.00013

