
*** ChampSim Multicore Out-of-Order Simulator ***

Warmup Instructions: 40000000
Simulation Instructions: 100000000
Number of CPUs: 1
Off-chip DRAM Size: 4 GiB Channels: 1 Width: 64-bit Data Rate: 3200 MT/s

VirtualMemory physical capacity: 4293914624 num_ppages: 1048319
VirtualMemory page size: 4096 log2_page_size: 12

CPU 0 runs ../../../../ICS/traces//cc-14.trace.gz
CPU 0 Bimodal branch predictor
Basic BTB sets: 1024 ways: 8 indirect buffer size: 4096 RAS size: 64
Heartbeat CPU 0 instructions: 10000003 cycles: 2519497 heartbeat IPC: 3.96905 cumulative IPC: 3.96905 (Simulation time: 0 hr 0 min 32 sec) 
Heartbeat CPU 0 instructions: 20000004 cycles: 5135315 heartbeat IPC: 3.8229 cumulative IPC: 3.8946 (Simulation time: 0 hr 1 min 12 sec) 
Heartbeat CPU 0 instructions: 30000004 cycles: 7782194 heartbeat IPC: 3.77803 cumulative IPC: 3.85495 (Simulation time: 0 hr 1 min 49 sec) 
Heartbeat CPU 0 instructions: 40000003 cycles: 10462128 heartbeat IPC: 3.73143 cumulative IPC: 3.82331 (Simulation time: 0 hr 2 min 29 sec) 

Warmup complete CPU 0 instructions: 40000003 cycles: 10462128 (Simulation time: 0 hr 2 min 29 sec) 

Heartbeat CPU 0 instructions: 50000004 cycles: 31040460 heartbeat IPC: 0.485948 cumulative IPC: 0.485948 (Simulation time: 0 hr 3 min 49 sec) 
Heartbeat CPU 0 instructions: 60000000 cycles: 51145510 heartbeat IPC: 0.497387 cumulative IPC: 0.491601 (Simulation time: 0 hr 5 min 19 sec) 
Heartbeat CPU 0 instructions: 70000000 cycles: 70952497 heartbeat IPC: 0.504872 cumulative IPC: 0.495947 (Simulation time: 0 hr 6 min 46 sec) 
Heartbeat CPU 0 instructions: 80000001 cycles: 91115359 heartbeat IPC: 0.495961 cumulative IPC: 0.49595 (Simulation time: 0 hr 8 min 11 sec) 
Heartbeat CPU 0 instructions: 90000000 cycles: 110319474 heartbeat IPC: 0.520722 cumulative IPC: 0.500714 (Simulation time: 0 hr 9 min 29 sec) 
Heartbeat CPU 0 instructions: 100000003 cycles: 129553660 heartbeat IPC: 0.519908 cumulative IPC: 0.503814 (Simulation time: 0 hr 10 min 57 sec) 
Heartbeat CPU 0 instructions: 110000000 cycles: 149122381 heartbeat IPC: 0.511019 cumulative IPC: 0.504831 (Simulation time: 0 hr 12 min 17 sec) 
Heartbeat CPU 0 instructions: 120000000 cycles: 168836595 heartbeat IPC: 0.507248 cumulative IPC: 0.505132 (Simulation time: 0 hr 13 min 44 sec) 
Heartbeat CPU 0 instructions: 130000001 cycles: 188887655 heartbeat IPC: 0.498727 cumulative IPC: 0.504412 (Simulation time: 0 hr 15 min 6 sec) 
Heartbeat CPU 0 instructions: 140000001 cycles: 208199032 heartbeat IPC: 0.517829 cumulative IPC: 0.505722 (Simulation time: 0 hr 16 min 28 sec) 
Finished CPU 0 instructions: 100000000 cycles: 197736934 cumulative IPC: 0.505722 (Simulation time: 0 hr 16 min 28 sec) 

ChampSim completed all CPUs

Region of Interest Statistics

CPU 0 cumulative IPC: 0.505722 instructions: 100000000 cycles: 197736934
cpu0_DTLB TOTAL     ACCESS:   24903235  HIT:   20093387  MISS:    4809848
cpu0_DTLB LOAD      ACCESS:   24703511  HIT:   19893663  MISS:    4809848
cpu0_DTLB RFO       ACCESS:     199724  HIT:     199724  MISS:          0
cpu0_DTLB PREFETCH  ACCESS:          0  HIT:          0  MISS:          0
cpu0_DTLB WRITEBACK ACCESS:          0  HIT:          0  MISS:          0
cpu0_DTLB TRANSLATION ACCESS:          0  HIT:          0  MISS:          0
cpu0_DTLB PREFETCH  REQUESTED:          0  ISSUED:          0  USEFUL:          0  USELESS:          0
cpu0_DTLB AVERAGE MISS LATENCY: 9.81584 cycles
cpu0_DTLB MSHR FULL EVENTS: 437311 MSHR MERGE EVENTS: 267132
cpu0_ITLB TOTAL     ACCESS:   10036332  HIT:   10036332  MISS:          0
cpu0_ITLB LOAD      ACCESS:   10036332  HIT:   10036332  MISS:          0
cpu0_ITLB RFO       ACCESS:          0  HIT:          0  MISS:          0
cpu0_ITLB PREFETCH  ACCESS:          0  HIT:          0  MISS:          0
cpu0_ITLB WRITEBACK ACCESS:          0  HIT:          0  MISS:          0
cpu0_ITLB TRANSLATION ACCESS:          0  HIT:          0  MISS:          0
cpu0_ITLB PREFETCH  REQUESTED:          0  ISSUED:          0  USEFUL:          0  USELESS:          0
cpu0_ITLB AVERAGE MISS LATENCY: -nan cycles
cpu0_ITLB MSHR FULL EVENTS: 0 MSHR MERGE EVENTS: 0
cpu0_STLB TOTAL     ACCESS:    4809848  HIT:    4802577  MISS:       7271
cpu0_STLB LOAD      ACCESS:    4809848  HIT:    4802577  MISS:       7271
cpu0_STLB RFO       ACCESS:          0  HIT:          0  MISS:          0
cpu0_STLB PREFETCH  ACCESS:          0  HIT:          0  MISS:          0
cpu0_STLB WRITEBACK ACCESS:          0  HIT:          0  MISS:          0
cpu0_STLB TRANSLATION ACCESS:          0  HIT:          0  MISS:          0
cpu0_STLB PREFETCH  REQUESTED:          0  ISSUED:          0  USEFUL:          0  USELESS:          0
cpu0_STLB AVERAGE MISS LATENCY: 218.539 cycles
cpu0_STLB MSHR FULL EVENTS: 0 MSHR MERGE EVENTS: 0
cpu0_L1D TOTAL     ACCESS:   20196015  HIT:   12799208  MISS:    7396807
cpu0_L1D LOAD      ACCESS:   19988493  HIT:   12598553  MISS:    7389940
cpu0_L1D RFO       ACCESS:     200251  HIT:     200251  MISS:          0
cpu0_L1D PREFETCH  ACCESS:          0  HIT:          0  MISS:          0
cpu0_L1D WRITEBACK ACCESS:          0  HIT:          0  MISS:          0
cpu0_L1D TRANSLATION ACCESS:       7271  HIT:        404  MISS:       6867
cpu0_L1D PREFETCH  REQUESTED:          0  ISSUED:          0  USEFUL:          0  USELESS:          0
cpu0_L1D AVERAGE MISS LATENCY: 26.9244 cycles
cpu0_L1D MSHR FULL EVENTS: 0 MSHR MERGE EVENTS: 1066927
cpu0_L2C TOTAL     ACCESS:    7557766  HIT:    3757242  MISS:    3800510
cpu0_L2C LOAD      ACCESS:    7389939  HIT:    3589472  MISS:    3800467
cpu0_L2C RFO       ACCESS:          0  HIT:          0  MISS:          0
cpu0_L2C PREFETCH  ACCESS:          0  HIT:          0  MISS:          0
cpu0_L2C WRITEBACK ACCESS:     160960  HIT:     160946  MISS:         14
cpu0_L2C TRANSLATION ACCESS:       6867  HIT:       6824  MISS:         43
cpu0_L2C PREFETCH  REQUESTED:          0  ISSUED:          0  USEFUL:          0  USELESS:          0
cpu0_L2C AVERAGE MISS LATENCY: 31.3759 cycles
cpu0_L2C MSHR FULL EVENTS: 0 MSHR MERGE EVENTS: 0
LLC TOTAL     ACCESS:    7600991  HIT:    3335049  MISS:     465455
LLC LOAD      ACCESS:    3800424  HIT:    3334970  MISS:     465454
LLC RFO       ACCESS:          0  HIT:          0  MISS:          0
LLC PREFETCH  ACCESS:          0  HIT:          0  MISS:          0
LLC WRITEBACK ACCESS:    3800524  HIT:         37  MISS:    3800487
LLC TRANSLATION ACCESS:         43  HIT:         42  MISS:          1
LLC PREFETCH  REQUESTED:          0  ISSUED:          0  USEFUL:          0  USELESS:          0
LLC AVERAGE MISS LATENCY: 85.7222 cycles
LLC MSHR FULL EVENTS: 0 MSHR MERGE EVENTS: 0
blocks bypassed = 0
blocks filled to llc = 0

DRAM Statistics
 CHANNEL 0
 RQ ROW_BUFFER_HIT:     356173  ROW_BUFFER_MISS:     109282
 DBUS AVG_CONGESTED_CYCLE:    3.22973
 WQ ROW_BUFFER_HIT:         29  ROW_BUFFER_MISS:         66  FULL:          0


CPU 0 Branch Prediction Accuracy: 89.6802% MPKI: 20.8257 Average ROB Occupancy at Mispredict: 26.3714
Branch type MPKI
BRANCH_DIRECT_JUMP: 0
BRANCH_INDIRECT: 0
BRANCH_CONDITIONAL: 20.8257
BRANCH_DIRECT_CALL: 0
BRANCH_INDIRECT_CALL: 0
BRANCH_RETURN: 0

