
*** ChampSim Multicore Out-of-Order Simulator ***

Warmup Instructions: 40000000
Simulation Instructions: 100000000
Number of CPUs: 1
Off-chip DRAM Size: 4 GiB Channels: 1 Width: 64-bit Data Rate: 3200 MT/s

VirtualMemory physical capacity: 4293914624 num_ppages: 1048319
VirtualMemory page size: 4096 log2_page_size: 12

CPU 0 runs ../../../../ICS/traces//bc-3.trace.gz
CPU 0 Bimodal branch predictor
Basic BTB sets: 1024 ways: 8 indirect buffer size: 4096 RAS size: 64
Heartbeat CPU 0 instructions: 10000000 cycles: 3274526 heartbeat IPC: 3.05388 cumulative IPC: 3.05388 (Simulation time: 0 hr 1 min 2 sec) 
Heartbeat CPU 0 instructions: 20000000 cycles: 5777967 heartbeat IPC: 3.9945 cumulative IPC: 3.46143 (Simulation time: 0 hr 1 min 47 sec) 
Heartbeat CPU 0 instructions: 30000000 cycles: 8280031 heartbeat IPC: 3.9967 cumulative IPC: 3.62317 (Simulation time: 0 hr 2 min 32 sec) 
Heartbeat CPU 0 instructions: 40000002 cycles: 10781406 heartbeat IPC: 3.9978 cumulative IPC: 3.71009 (Simulation time: 0 hr 3 min 25 sec) 

Warmup complete CPU 0 instructions: 40000002 cycles: 10781406 (Simulation time: 0 hr 3 min 25 sec) 

Heartbeat CPU 0 instructions: 50000000 cycles: 35231336 heartbeat IPC: 0.408999 cumulative IPC: 0.408999 (Simulation time: 0 hr 5 min 4 sec) 
Heartbeat CPU 0 instructions: 60000001 cycles: 59924127 heartbeat IPC: 0.404977 cumulative IPC: 0.406978 (Simulation time: 0 hr 6 min 35 sec) 
Heartbeat CPU 0 instructions: 70000000 cycles: 84707138 heartbeat IPC: 0.403502 cumulative IPC: 0.405813 (Simulation time: 0 hr 8 min 3 sec) 
Heartbeat CPU 0 instructions: 80000000 cycles: 109565301 heartbeat IPC: 0.402282 cumulative IPC: 0.404924 (Simulation time: 0 hr 9 min 31 sec) 
Heartbeat CPU 0 instructions: 90000000 cycles: 134226501 heartbeat IPC: 0.405495 cumulative IPC: 0.405038 (Simulation time: 0 hr 11 min 1 sec) 
Heartbeat CPU 0 instructions: 100000004 cycles: 158603101 heartbeat IPC: 0.41023 cumulative IPC: 0.405894 (Simulation time: 0 hr 12 min 32 sec) 
Heartbeat CPU 0 instructions: 110000000 cycles: 182911790 heartbeat IPC: 0.411375 cumulative IPC: 0.406668 (Simulation time: 0 hr 13 min 44 sec) 
Heartbeat CPU 0 instructions: 120000000 cycles: 206990519 heartbeat IPC: 0.415304 cumulative IPC: 0.407728 (Simulation time: 0 hr 14 min 36 sec) 
Heartbeat CPU 0 instructions: 130000002 cycles: 230903997 heartbeat IPC: 0.418174 cumulative IPC: 0.408863 (Simulation time: 0 hr 15 min 25 sec) 
Heartbeat CPU 0 instructions: 140000001 cycles: 254738923 heartbeat IPC: 0.419552 cumulative IPC: 0.409907 (Simulation time: 0 hr 16 min 22 sec) 
Finished CPU 0 instructions: 100000004 cycles: 243957518 cumulative IPC: 0.409907 (Simulation time: 0 hr 16 min 22 sec) 

ChampSim completed all CPUs

Region of Interest Statistics

CPU 0 cumulative IPC: 0.409907 instructions: 100000004 cycles: 243957518
cpu0_DTLB TOTAL     ACCESS:   20568003  HIT:   16718971  MISS:    3849032
cpu0_DTLB LOAD      ACCESS:   17169496  HIT:   14377179  MISS:    2792317
cpu0_DTLB RFO       ACCESS:    3398507  HIT:    2341792  MISS:    1056715
cpu0_DTLB PREFETCH  ACCESS:          0  HIT:          0  MISS:          0
cpu0_DTLB WRITEBACK ACCESS:          0  HIT:          0  MISS:          0
cpu0_DTLB TRANSLATION ACCESS:          0  HIT:          0  MISS:          0
cpu0_DTLB PREFETCH  REQUESTED:          0  ISSUED:          0  USEFUL:          0  USELESS:          0
cpu0_DTLB AVERAGE MISS LATENCY: 11.9879 cycles
cpu0_DTLB MSHR FULL EVENTS: 43262 MSHR MERGE EVENTS: 660310
cpu0_ITLB TOTAL     ACCESS:   13125200  HIT:   13125200  MISS:          0
cpu0_ITLB LOAD      ACCESS:   13125200  HIT:   13125200  MISS:          0
cpu0_ITLB RFO       ACCESS:          0  HIT:          0  MISS:          0
cpu0_ITLB PREFETCH  ACCESS:          0  HIT:          0  MISS:          0
cpu0_ITLB WRITEBACK ACCESS:          0  HIT:          0  MISS:          0
cpu0_ITLB TRANSLATION ACCESS:          0  HIT:          0  MISS:          0
cpu0_ITLB PREFETCH  REQUESTED:          0  ISSUED:          0  USEFUL:          0  USELESS:          0
cpu0_ITLB AVERAGE MISS LATENCY: -nan cycles
cpu0_ITLB MSHR FULL EVENTS: 0 MSHR MERGE EVENTS: 0
cpu0_L1I TOTAL     ACCESS:        204  HIT:        204  MISS:          0
cpu0_L1I LOAD      ACCESS:        204  HIT:        204  MISS:          0
cpu0_L1I RFO       ACCESS:          0  HIT:          0  MISS:          0
cpu0_L1I PREFETCH  ACCESS:          0  HIT:          0  MISS:          0
cpu0_L1I WRITEBACK ACCESS:          0  HIT:          0  MISS:          0
cpu0_L1I TRANSLATION ACCESS:          0  HIT:          0  MISS:          0
cpu0_L1I PREFETCH  REQUESTED:          0  ISSUED:          0  USEFUL:          0  USELESS:          0
cpu0_L1I AVERAGE MISS LATENCY: -nan cycles
cpu0_L1I MSHR FULL EVENTS: 0 MSHR MERGE EVENTS: 0
cpu0_STLB TOTAL     ACCESS:    3849032  HIT:    2685300  MISS:    1163732
cpu0_STLB LOAD      ACCESS:    2792317  HIT:    2280718  MISS:     511599
cpu0_STLB RFO       ACCESS:    1056715  HIT:     404582  MISS:     652133
cpu0_STLB PREFETCH  ACCESS:          0  HIT:          0  MISS:          0
cpu0_STLB WRITEBACK ACCESS:          0  HIT:          0  MISS:          0
cpu0_STLB TRANSLATION ACCESS:          0  HIT:          0  MISS:          0
cpu0_STLB PREFETCH  REQUESTED:          0  ISSUED:          0  USEFUL:          0  USELESS:          0
cpu0_STLB AVERAGE MISS LATENCY: 10.4283 cycles
cpu0_STLB MSHR FULL EVENTS: 0 MSHR MERGE EVENTS: 0
cpu0_L1D TOTAL     ACCESS:   23472142  HIT:   14656299  MISS:    8815843
cpu0_L1D LOAD      ACCESS:   18805555  HIT:   10019735  MISS:    8785820
cpu0_L1D RFO       ACCESS:    3540093  HIT:    3516264  MISS:      23829
cpu0_L1D PREFETCH  ACCESS:          0  HIT:          0  MISS:          0
cpu0_L1D WRITEBACK ACCESS:          0  HIT:          0  MISS:          0
cpu0_L1D TRANSLATION ACCESS:    1126494  HIT:    1120300  MISS:       6194
cpu0_L1D PREFETCH  REQUESTED:          0  ISSUED:          0  USEFUL:          0  USELESS:          0
cpu0_L1D AVERAGE MISS LATENCY: 30.9754 cycles
cpu0_L1D MSHR FULL EVENTS: 215169 MSHR MERGE EVENTS: 550173
cpu0_L2C TOTAL     ACCESS:   10608807  HIT:    4507371  MISS:    6101367
cpu0_L2C LOAD      ACCESS:    8785820  HIT:    2708227  MISS:    6077593
cpu0_L2C RFO       ACCESS:      23829  HIT:        320  MISS:      23509
cpu0_L2C PREFETCH  ACCESS:          0  HIT:          0  MISS:          0
cpu0_L2C WRITEBACK ACCESS:    1792964  HIT:    1792895  MISS:         69
cpu0_L2C TRANSLATION ACCESS:       6194  HIT:       5929  MISS:        265
cpu0_L2C PREFETCH  REQUESTED:          0  ISSUED:          0  USEFUL:          0  USELESS:          0
cpu0_L2C AVERAGE MISS LATENCY: 29.4413 cycles
cpu0_L2C MSHR FULL EVENTS: 0 MSHR MERGE EVENTS: 0
LLC TOTAL     ACCESS:   12202780  HIT:    5622792  MISS:     478575
LLC LOAD      ACCESS:    6077576  HIT:    5611293  MISS:     466283
LLC RFO       ACCESS:      23509  HIT:      11221  MISS:      12288
LLC PREFETCH  ACCESS:          0  HIT:          0  MISS:          0
LLC WRITEBACK ACCESS:    6101430  HIT:         17  MISS:    6101413
LLC TRANSLATION ACCESS:        265  HIT:        261  MISS:          4
LLC PREFETCH  REQUESTED:          0  ISSUED:          0  USEFUL:          0  USELESS:          0
LLC AVERAGE MISS LATENCY: 108.618 cycles
LLC MSHR FULL EVENTS: 0 MSHR MERGE EVENTS: 0
blocks bypassed = 0
blocks filled to llc = 0

DRAM Statistics
 CHANNEL 0
 RQ ROW_BUFFER_HIT:     264288  ROW_BUFFER_MISS:     214287
 DBUS AVG_CONGESTED_CYCLE:    3.94043
 WQ ROW_BUFFER_HIT:      22356  ROW_BUFFER_MISS:     110049  FULL:          0


CPU 0 Branch Prediction Accuracy: 86.6685% MPKI: 28.5131 Average ROB Occupancy at Mispredict: 23.5125
Branch type MPKI
BRANCH_DIRECT_JUMP: 0
BRANCH_INDIRECT: 0
BRANCH_CONDITIONAL: 28.5131
BRANCH_DIRECT_CALL: 0
BRANCH_INDIRECT_CALL: 0
BRANCH_RETURN: 0

