
*** ChampSim Multicore Out-of-Order Simulator ***

Warmup Instructions: 40000000
Simulation Instructions: 100000000
Number of CPUs: 1
Off-chip DRAM Size: 4 GiB Channels: 1 Width: 64-bit Data Rate: 3200 MT/s

VirtualMemory physical capacity: 4293914624 num_ppages: 1048319
VirtualMemory page size: 4096 log2_page_size: 12

CPU 0 runs ../../../../ICS/traces//sssp-3.trace.gz
CPU 0 Bimodal branch predictor
Basic BTB sets: 1024 ways: 8 indirect buffer size: 4096 RAS size: 64
Heartbeat CPU 0 instructions: 10000002 cycles: 2980178 heartbeat IPC: 3.3555 cumulative IPC: 3.3555 (Simulation time: 0 hr 0 min 54 sec) 
Heartbeat CPU 0 instructions: 20000001 cycles: 6362102 heartbeat IPC: 2.9569 cumulative IPC: 3.14362 (Simulation time: 0 hr 1 min 45 sec) 
Heartbeat CPU 0 instructions: 30000002 cycles: 9909298 heartbeat IPC: 2.81913 cumulative IPC: 3.02746 (Simulation time: 0 hr 2 min 33 sec) 
Heartbeat CPU 0 instructions: 40000001 cycles: 13481115 heartbeat IPC: 2.7997 cumulative IPC: 2.96711 (Simulation time: 0 hr 3 min 23 sec) 

Warmup complete CPU 0 instructions: 40000001 cycles: 13481115 (Simulation time: 0 hr 3 min 23 sec) 

Heartbeat CPU 0 instructions: 50000002 cycles: 29178062 heartbeat IPC: 0.637067 cumulative IPC: 0.637067 (Simulation time: 0 hr 4 min 23 sec) 
Heartbeat CPU 0 instructions: 60000002 cycles: 43694484 heartbeat IPC: 0.688875 cumulative IPC: 0.661959 (Simulation time: 0 hr 5 min 24 sec) 
Heartbeat CPU 0 instructions: 70000003 cycles: 57365651 heartbeat IPC: 0.731467 cumulative IPC: 0.683612 (Simulation time: 0 hr 6 min 23 sec) 
Heartbeat CPU 0 instructions: 80000000 cycles: 70412396 heartbeat IPC: 0.766474 cumulative IPC: 0.702601 (Simulation time: 0 hr 7 min 21 sec) 
Heartbeat CPU 0 instructions: 90000000 cycles: 83176496 heartbeat IPC: 0.783447 cumulative IPC: 0.717408 (Simulation time: 0 hr 8 min 21 sec) 
Heartbeat CPU 0 instructions: 100000000 cycles: 95281817 heartbeat IPC: 0.826083 cumulative IPC: 0.73349 (Simulation time: 0 hr 9 min 19 sec) 
Heartbeat CPU 0 instructions: 110000004 cycles: 107324313 heartbeat IPC: 0.830393 cumulative IPC: 0.745925 (Simulation time: 0 hr 10 min 19 sec) 
Heartbeat CPU 0 instructions: 120000000 cycles: 118797021 heartbeat IPC: 0.871633 cumulative IPC: 0.759619 (Simulation time: 0 hr 11 min 17 sec) 
Heartbeat CPU 0 instructions: 130000002 cycles: 130066142 heartbeat IPC: 0.887381 cumulative IPC: 0.771969 (Simulation time: 0 hr 12 min 19 sec) 
Heartbeat CPU 0 instructions: 140000000 cycles: 140919675 heartbeat IPC: 0.921359 cumulative IPC: 0.784692 (Simulation time: 0 hr 13 min 14 sec) 
Finished CPU 0 instructions: 100000001 cycles: 127438593 cumulative IPC: 0.784692 (Simulation time: 0 hr 13 min 14 sec) 

ChampSim completed all CPUs

Region of Interest Statistics

CPU 0 cumulative IPC: 0.784692 instructions: 100000001 cycles: 127438593
cpu0_DTLB TOTAL     ACCESS:   24589305  HIT:   22665333  MISS:    1923972
cpu0_DTLB LOAD      ACCESS:   23608116  HIT:   22064913  MISS:    1543203
cpu0_DTLB RFO       ACCESS:     981189  HIT:     600420  MISS:     380769
cpu0_DTLB PREFETCH  ACCESS:          0  HIT:          0  MISS:          0
cpu0_DTLB WRITEBACK ACCESS:          0  HIT:          0  MISS:          0
cpu0_DTLB TRANSLATION ACCESS:          0  HIT:          0  MISS:          0
cpu0_DTLB PREFETCH  REQUESTED:          0  ISSUED:          0  USEFUL:          0  USELESS:          0
cpu0_DTLB AVERAGE MISS LATENCY: 10.7942 cycles
cpu0_DTLB MSHR FULL EVENTS: 304 MSHR MERGE EVENTS: 558885
cpu0_ITLB TOTAL     ACCESS:    8852176  HIT:    8852176  MISS:          0
cpu0_ITLB LOAD      ACCESS:    8852176  HIT:    8852176  MISS:          0
cpu0_ITLB RFO       ACCESS:          0  HIT:          0  MISS:          0
cpu0_ITLB PREFETCH  ACCESS:          0  HIT:          0  MISS:          0
cpu0_ITLB WRITEBACK ACCESS:          0  HIT:          0  MISS:          0
cpu0_ITLB TRANSLATION ACCESS:          0  HIT:          0  MISS:          0
cpu0_ITLB PREFETCH  REQUESTED:          0  ISSUED:          0  USEFUL:          0  USELESS:          0
cpu0_ITLB AVERAGE MISS LATENCY: -nan cycles
cpu0_ITLB MSHR FULL EVENTS: 0 MSHR MERGE EVENTS: 0
cpu0_L1I TOTAL     ACCESS:      14769  HIT:      14769  MISS:          0
cpu0_L1I LOAD      ACCESS:      14769  HIT:      14769  MISS:          0
cpu0_L1I RFO       ACCESS:          0  HIT:          0  MISS:          0
cpu0_L1I PREFETCH  ACCESS:          0  HIT:          0  MISS:          0
cpu0_L1I WRITEBACK ACCESS:          0  HIT:          0  MISS:          0
cpu0_L1I TRANSLATION ACCESS:          0  HIT:          0  MISS:          0
cpu0_L1I PREFETCH  REQUESTED:          0  ISSUED:          0  USEFUL:          0  USELESS:          0
cpu0_L1I AVERAGE MISS LATENCY: -nan cycles
cpu0_L1I MSHR FULL EVENTS: 0 MSHR MERGE EVENTS: 0
cpu0_STLB TOTAL     ACCESS:    1923972  HIT:    1898650  MISS:      25322
cpu0_STLB LOAD      ACCESS:    1543203  HIT:    1522215  MISS:      20988
cpu0_STLB RFO       ACCESS:     380769  HIT:     376435  MISS:       4334
cpu0_STLB PREFETCH  ACCESS:          0  HIT:          0  MISS:          0
cpu0_STLB WRITEBACK ACCESS:          0  HIT:          0  MISS:          0
cpu0_STLB TRANSLATION ACCESS:          0  HIT:          0  MISS:          0
cpu0_STLB PREFETCH  REQUESTED:          0  ISSUED:          0  USEFUL:          0  USELESS:          0
cpu0_STLB AVERAGE MISS LATENCY: 128.389 cycles
cpu0_STLB MSHR FULL EVENTS: 0 MSHR MERGE EVENTS: 0
cpu0_L1D TOTAL     ACCESS:   22984104  HIT:   17681555  MISS:    5302549
cpu0_L1D LOAD      ACCESS:   21506092  HIT:   16520121  MISS:    4985971
cpu0_L1D RFO       ACCESS:    1452801  HIT:    1144470  MISS:     308331
cpu0_L1D PREFETCH  ACCESS:          0  HIT:          0  MISS:          0
cpu0_L1D WRITEBACK ACCESS:          0  HIT:          0  MISS:          0
cpu0_L1D TRANSLATION ACCESS:      25211  HIT:      16964  MISS:       8247
cpu0_L1D PREFETCH  REQUESTED:          0  ISSUED:          0  USEFUL:          0  USELESS:          0
cpu0_L1D AVERAGE MISS LATENCY: 34.3268 cycles
cpu0_L1D MSHR FULL EVENTS: 620654 MSHR MERGE EVENTS: 2684071
cpu0_L2C TOTAL     ACCESS:    6204839  HIT:    2954190  MISS:    3250233
cpu0_L2C LOAD      ACCESS:    4985965  HIT:    1815624  MISS:    3170341
cpu0_L2C RFO       ACCESS:     308321  HIT:     230083  MISS:      78238
cpu0_L2C PREFETCH  ACCESS:          0  HIT:          0  MISS:          0
cpu0_L2C WRITEBACK ACCESS:     902306  HIT:     901890  MISS:        416
cpu0_L2C TRANSLATION ACCESS:       8247  HIT:       6593  MISS:       1654
cpu0_L2C PREFETCH  REQUESTED:          0  ISSUED:          0  USEFUL:          0  USELESS:          0
cpu0_L2C AVERAGE MISS LATENCY: 38.5931 cycles
cpu0_L2C MSHR FULL EVENTS: 0 MSHR MERGE EVENTS: 0
LLC TOTAL     ACCESS:    6500844  HIT:    2635739  MISS:     614491
LLC LOAD      ACCESS:    3170303  HIT:    2597645  MISS:     572658
LLC RFO       ACCESS:      78238  HIT:      36405  MISS:      41833
LLC PREFETCH  ACCESS:          0  HIT:          0  MISS:          0
LLC WRITEBACK ACCESS:    3250649  HIT:         35  MISS:    3250614
LLC TRANSLATION ACCESS:       1654  HIT:       1654  MISS:          0
LLC PREFETCH  REQUESTED:          0  ISSUED:          0  USEFUL:          0  USELESS:          0
LLC AVERAGE MISS LATENCY: 93.9747 cycles
LLC MSHR FULL EVENTS: 0 MSHR MERGE EVENTS: 0
blocks bypassed = 0
blocks filled to llc = 0

DRAM Statistics
 CHANNEL 0
 RQ ROW_BUFFER_HIT:     450517  ROW_BUFFER_MISS:     163972
 DBUS AVG_CONGESTED_CYCLE:    3.88553
 WQ ROW_BUFFER_HIT:       5922  ROW_BUFFER_MISS:      19960  FULL:          0


CPU 0 Branch Prediction Accuracy: 94.4267% MPKI: 8.26397 Average ROB Occupancy at Mispredict: 81.67
Branch type MPKI
BRANCH_DIRECT_JUMP: 1e-05
BRANCH_INDIRECT: 0
BRANCH_CONDITIONAL: 8.26396
BRANCH_DIRECT_CALL: 0
BRANCH_INDIRECT_CALL: 0
BRANCH_RETURN: 0

