
*** ChampSim Multicore Out-of-Order Simulator ***

Warmup Instructions: 40000000
Simulation Instructions: 100000000
Number of CPUs: 1
Off-chip DRAM Size: 4 GiB Channels: 1 Width: 64-bit Data Rate: 3200 MT/s

VirtualMemory physical capacity: 4293914624 num_ppages: 1048319
VirtualMemory page size: 4096 log2_page_size: 12

CPU 0 runs ../../../../ICS/traces//sssp-5.trace.gz
CPU 0 Bimodal branch predictor
Basic BTB sets: 1024 ways: 8 indirect buffer size: 4096 RAS size: 64
Heartbeat CPU 0 instructions: 10000001 cycles: 2972432 heartbeat IPC: 3.36425 cumulative IPC: 3.36425 (Simulation time: 0 hr 0 min 52 sec) 
Heartbeat CPU 0 instructions: 20000001 cycles: 6362863 heartbeat IPC: 2.94948 cumulative IPC: 3.14324 (Simulation time: 0 hr 1 min 36 sec) 
Heartbeat CPU 0 instructions: 30000003 cycles: 9887579 heartbeat IPC: 2.83711 cumulative IPC: 3.03411 (Simulation time: 0 hr 2 min 25 sec) 
Heartbeat CPU 0 instructions: 40000001 cycles: 13495723 heartbeat IPC: 2.77151 cumulative IPC: 2.9639 (Simulation time: 0 hr 3 min 15 sec) 

Warmup complete CPU 0 instructions: 40000001 cycles: 13495723 (Simulation time: 0 hr 3 min 15 sec) 

Heartbeat CPU 0 instructions: 50000004 cycles: 28934045 heartbeat IPC: 0.647739 cumulative IPC: 0.647739 (Simulation time: 0 hr 4 min 14 sec) 
Heartbeat CPU 0 instructions: 60000002 cycles: 43253630 heartbeat IPC: 0.698344 cumulative IPC: 0.67209 (Simulation time: 0 hr 5 min 18 sec) 
Heartbeat CPU 0 instructions: 70000004 cycles: 56944980 heartbeat IPC: 0.730388 cumulative IPC: 0.690461 (Simulation time: 0 hr 6 min 25 sec) 
Heartbeat CPU 0 instructions: 80000000 cycles: 70543740 heartbeat IPC: 0.735361 cumulative IPC: 0.701164 (Simulation time: 0 hr 7 min 26 sec) 
Heartbeat CPU 0 instructions: 90000003 cycles: 83178155 heartbeat IPC: 0.791489 cumulative IPC: 0.717541 (Simulation time: 0 hr 8 min 26 sec) 
Heartbeat CPU 0 instructions: 100000002 cycles: 95462845 heartbeat IPC: 0.814021 cumulative IPC: 0.732001 (Simulation time: 0 hr 9 min 25 sec) 
Heartbeat CPU 0 instructions: 110000002 cycles: 107246667 heartbeat IPC: 0.848621 cumulative IPC: 0.746659 (Simulation time: 0 hr 10 min 26 sec) 
Heartbeat CPU 0 instructions: 120000003 cycles: 118650766 heartbeat IPC: 0.876878 cumulative IPC: 0.760781 (Simulation time: 0 hr 11 min 21 sec) 
Heartbeat CPU 0 instructions: 130000000 cycles: 130086792 heartbeat IPC: 0.874429 cumulative IPC: 0.771929 (Simulation time: 0 hr 12 min 14 sec) 
Heartbeat CPU 0 instructions: 140000001 cycles: 141145237 heartbeat IPC: 0.904286 cumulative IPC: 0.783395 (Simulation time: 0 hr 13 min 5 sec) 
Finished CPU 0 instructions: 100000000 cycles: 127649514 cumulative IPC: 0.783395 (Simulation time: 0 hr 13 min 5 sec) 

ChampSim completed all CPUs

Region of Interest Statistics

CPU 0 cumulative IPC: 0.783395 instructions: 100000000 cycles: 127649514
cpu0_DTLB TOTAL     ACCESS:   24832590  HIT:   22893913  MISS:    1938677
cpu0_DTLB LOAD      ACCESS:   23850084  HIT:   22294799  MISS:    1555285
cpu0_DTLB RFO       ACCESS:     982506  HIT:     599114  MISS:     383392
cpu0_DTLB PREFETCH  ACCESS:          0  HIT:          0  MISS:          0
cpu0_DTLB WRITEBACK ACCESS:          0  HIT:          0  MISS:          0
cpu0_DTLB TRANSLATION ACCESS:          0  HIT:          0  MISS:          0
cpu0_DTLB PREFETCH  REQUESTED:          0  ISSUED:          0  USEFUL:          0  USELESS:          0
cpu0_DTLB AVERAGE MISS LATENCY: 10.7789 cycles
cpu0_DTLB MSHR FULL EVENTS: 285 MSHR MERGE EVENTS: 550455
cpu0_ITLB TOTAL     ACCESS:    8878214  HIT:    8878214  MISS:          0
cpu0_ITLB LOAD      ACCESS:    8878214  HIT:    8878214  MISS:          0
cpu0_ITLB RFO       ACCESS:          0  HIT:          0  MISS:          0
cpu0_ITLB PREFETCH  ACCESS:          0  HIT:          0  MISS:          0
cpu0_ITLB WRITEBACK ACCESS:          0  HIT:          0  MISS:          0
cpu0_ITLB TRANSLATION ACCESS:          0  HIT:          0  MISS:          0
cpu0_ITLB PREFETCH  REQUESTED:          0  ISSUED:          0  USEFUL:          0  USELESS:          0
cpu0_ITLB AVERAGE MISS LATENCY: -nan cycles
cpu0_ITLB MSHR FULL EVENTS: 0 MSHR MERGE EVENTS: 0
cpu0_L1I TOTAL     ACCESS:      15317  HIT:      15317  MISS:          0
cpu0_L1I LOAD      ACCESS:      15317  HIT:      15317  MISS:          0
cpu0_L1I RFO       ACCESS:          0  HIT:          0  MISS:          0
cpu0_L1I PREFETCH  ACCESS:          0  HIT:          0  MISS:          0
cpu0_L1I WRITEBACK ACCESS:          0  HIT:          0  MISS:          0
cpu0_L1I TRANSLATION ACCESS:          0  HIT:          0  MISS:          0
cpu0_L1I PREFETCH  REQUESTED:          0  ISSUED:          0  USEFUL:          0  USELESS:          0
cpu0_L1I AVERAGE MISS LATENCY: -nan cycles
cpu0_L1I MSHR FULL EVENTS: 0 MSHR MERGE EVENTS: 0
cpu0_STLB TOTAL     ACCESS:    1938677  HIT:    1912777  MISS:      25900
cpu0_STLB LOAD      ACCESS:    1555285  HIT:    1533869  MISS:      21416
cpu0_STLB RFO       ACCESS:     383392  HIT:     378908  MISS:       4484
cpu0_STLB PREFETCH  ACCESS:          0  HIT:          0  MISS:          0
cpu0_STLB WRITEBACK ACCESS:          0  HIT:          0  MISS:          0
cpu0_STLB TRANSLATION ACCESS:          0  HIT:          0  MISS:          0
cpu0_STLB PREFETCH  REQUESTED:          0  ISSUED:          0  USEFUL:          0  USELESS:          0
cpu0_STLB AVERAGE MISS LATENCY: 125.407 cycles
cpu0_STLB MSHR FULL EVENTS: 0 MSHR MERGE EVENTS: 0
cpu0_L1D TOTAL     ACCESS:   19704949  HIT:   14410364  MISS:    5294585
cpu0_L1D LOAD      ACCESS:   18227654  HIT:   13251044  MISS:    4976610
cpu0_L1D RFO       ACCESS:    1451516  HIT:    1142162  MISS:     309354
cpu0_L1D PREFETCH  ACCESS:          0  HIT:          0  MISS:          0
cpu0_L1D WRITEBACK ACCESS:          0  HIT:          0  MISS:          0
cpu0_L1D TRANSLATION ACCESS:      25779  HIT:      17158  MISS:       8621
cpu0_L1D PREFETCH  REQUESTED:          0  ISSUED:          0  USEFUL:          0  USELESS:          0
cpu0_L1D AVERAGE MISS LATENCY: 34.2827 cycles
cpu0_L1D MSHR FULL EVENTS: 586874 MSHR MERGE EVENTS: 2778967
cpu0_L2C TOTAL     ACCESS:    6198387  HIT:    2950414  MISS:    3247709
cpu0_L2C LOAD      ACCESS:    4976604  HIT:    1809075  MISS:    3167529
cpu0_L2C RFO       ACCESS:     309342  HIT:     230742  MISS:      78600
cpu0_L2C PREFETCH  ACCESS:          0  HIT:          0  MISS:          0
cpu0_L2C WRITEBACK ACCESS:     903820  HIT:     903556  MISS:        264
cpu0_L2C TRANSLATION ACCESS:       8621  HIT:       7041  MISS:       1580
cpu0_L2C PREFETCH  REQUESTED:          0  ISSUED:          0  USEFUL:          0  USELESS:          0
cpu0_L2C AVERAGE MISS LATENCY: 38.5046 cycles
cpu0_L2C MSHR FULL EVENTS: 0 MSHR MERGE EVENTS: 0
LLC TOTAL     ACCESS:    6495646  HIT:    2634913  MISS:     612794
LLC LOAD      ACCESS:    3167496  HIT:    2594838  MISS:     572658
LLC RFO       ACCESS:      78600  HIT:      38464  MISS:      40136
LLC PREFETCH  ACCESS:          0  HIT:          0  MISS:          0
LLC WRITEBACK ACCESS:    3247970  HIT:         31  MISS:    3247939
LLC TRANSLATION ACCESS:       1580  HIT:       1580  MISS:          0
LLC PREFETCH  REQUESTED:          0  ISSUED:          0  USEFUL:          0  USELESS:          0
LLC AVERAGE MISS LATENCY: 93.7025 cycles
LLC MSHR FULL EVENTS: 0 MSHR MERGE EVENTS: 0
blocks bypassed = 0
blocks filled to llc = 0

DRAM Statistics
 CHANNEL 0
 RQ ROW_BUFFER_HIT:     449264  ROW_BUFFER_MISS:     163530
 DBUS AVG_CONGESTED_CYCLE:    3.90458
 WQ ROW_BUFFER_HIT:       5912  ROW_BUFFER_MISS:      19510  FULL:          0


CPU 0 Branch Prediction Accuracy: 94.4068% MPKI: 8.29424 Average ROB Occupancy at Mispredict: 81.5635
Branch type MPKI
BRANCH_DIRECT_JUMP: 0
BRANCH_INDIRECT: 0
BRANCH_CONDITIONAL: 8.29424
BRANCH_DIRECT_CALL: 0
BRANCH_INDIRECT_CALL: 0
BRANCH_RETURN: 0

