
*** ChampSim Multicore Out-of-Order Simulator ***

Warmup Instructions: 40000000
Simulation Instructions: 100000000
Number of CPUs: 1
Off-chip DRAM Size: 4 GiB Channels: 1 Width: 64-bit Data Rate: 3200 MT/s

VirtualMemory physical capacity: 4293914624 num_ppages: 1048319
VirtualMemory page size: 4096 log2_page_size: 12

CPU 0 runs ../../../../ICS/traces//bc-12.trace.gz
CPU 0 Bimodal branch predictor
Basic BTB sets: 1024 ways: 8 indirect buffer size: 4096 RAS size: 64
Heartbeat CPU 0 instructions: 10000003 cycles: 3161879 heartbeat IPC: 3.16268 cumulative IPC: 3.16268 (Simulation time: 0 hr 1 min 10 sec) 
Heartbeat CPU 0 instructions: 20000003 cycles: 5714051 heartbeat IPC: 3.91823 cumulative IPC: 3.50014 (Simulation time: 0 hr 2 min 2 sec) 
Heartbeat CPU 0 instructions: 30000000 cycles: 8259748 heartbeat IPC: 3.9282 cumulative IPC: 3.63207 (Simulation time: 0 hr 2 min 52 sec) 
Heartbeat CPU 0 instructions: 40000004 cycles: 10816169 heartbeat IPC: 3.91172 cumulative IPC: 3.69817 (Simulation time: 0 hr 3 min 57 sec) 

Warmup complete CPU 0 instructions: 40000004 cycles: 10816169 (Simulation time: 0 hr 3 min 57 sec) 

Heartbeat CPU 0 instructions: 50000004 cycles: 35896795 heartbeat IPC: 0.398714 cumulative IPC: 0.398714 (Simulation time: 0 hr 5 min 43 sec) 
Heartbeat CPU 0 instructions: 60000001 cycles: 61210752 heartbeat IPC: 0.395039 cumulative IPC: 0.396868 (Simulation time: 0 hr 7 min 8 sec) 
Heartbeat CPU 0 instructions: 70000000 cycles: 87048814 heartbeat IPC: 0.387026 cumulative IPC: 0.393532 (Simulation time: 0 hr 8 min 28 sec) 
Heartbeat CPU 0 instructions: 80000002 cycles: 113120110 heartbeat IPC: 0.383564 cumulative IPC: 0.390992 (Simulation time: 0 hr 9 min 56 sec) 
Heartbeat CPU 0 instructions: 90000000 cycles: 139136263 heartbeat IPC: 0.384376 cumulative IPC: 0.389651 (Simulation time: 0 hr 11 min 25 sec) 
Heartbeat CPU 0 instructions: 100000001 cycles: 165021693 heartbeat IPC: 0.386318 cumulative IPC: 0.389091 (Simulation time: 0 hr 12 min 53 sec) 
Heartbeat CPU 0 instructions: 110000000 cycles: 190799795 heartbeat IPC: 0.387926 cumulative IPC: 0.388924 (Simulation time: 0 hr 14 min 16 sec) 
Heartbeat CPU 0 instructions: 120000001 cycles: 215961900 heartbeat IPC: 0.397423 cumulative IPC: 0.389967 (Simulation time: 0 hr 15 min 36 sec) 
Heartbeat CPU 0 instructions: 130000000 cycles: 241577559 heartbeat IPC: 0.390386 cumulative IPC: 0.390013 (Simulation time: 0 hr 16 min 52 sec) 
Heartbeat CPU 0 instructions: 140000000 cycles: 266447150 heartbeat IPC: 0.402097 cumulative IPC: 0.391189 (Simulation time: 0 hr 17 min 47 sec) 
Finished CPU 0 instructions: 100000001 cycles: 255631005 cumulative IPC: 0.391189 (Simulation time: 0 hr 17 min 47 sec) 

ChampSim completed all CPUs

Region of Interest Statistics

CPU 0 cumulative IPC: 0.391189 instructions: 100000001 cycles: 255631005
cpu0_DTLB TOTAL     ACCESS:   23548192  HIT:   19903815  MISS:    3644377
cpu0_DTLB LOAD      ACCESS:   18516505  HIT:   16151813  MISS:    2364692
cpu0_DTLB RFO       ACCESS:    5031687  HIT:    3752002  MISS:    1279685
cpu0_DTLB PREFETCH  ACCESS:          0  HIT:          0  MISS:          0
cpu0_DTLB WRITEBACK ACCESS:          0  HIT:          0  MISS:          0
cpu0_DTLB TRANSLATION ACCESS:          0  HIT:          0  MISS:          0
cpu0_DTLB PREFETCH  REQUESTED:          0  ISSUED:          0  USEFUL:          0  USELESS:          0
cpu0_DTLB AVERAGE MISS LATENCY: 12.8061 cycles
cpu0_DTLB MSHR FULL EVENTS: 3643 MSHR MERGE EVENTS: 510357
cpu0_ITLB TOTAL     ACCESS:   11872189  HIT:   11872189  MISS:          0
cpu0_ITLB LOAD      ACCESS:   11872189  HIT:   11872189  MISS:          0
cpu0_ITLB RFO       ACCESS:          0  HIT:          0  MISS:          0
cpu0_ITLB PREFETCH  ACCESS:          0  HIT:          0  MISS:          0
cpu0_ITLB WRITEBACK ACCESS:          0  HIT:          0  MISS:          0
cpu0_ITLB TRANSLATION ACCESS:          0  HIT:          0  MISS:          0
cpu0_ITLB PREFETCH  REQUESTED:          0  ISSUED:          0  USEFUL:          0  USELESS:          0
cpu0_ITLB AVERAGE MISS LATENCY: -nan cycles
cpu0_ITLB MSHR FULL EVENTS: 0 MSHR MERGE EVENTS: 0
cpu0_L1I TOTAL     ACCESS:        187  HIT:        187  MISS:          0
cpu0_L1I LOAD      ACCESS:        187  HIT:        187  MISS:          0
cpu0_L1I RFO       ACCESS:          0  HIT:          0  MISS:          0
cpu0_L1I PREFETCH  ACCESS:          0  HIT:          0  MISS:          0
cpu0_L1I WRITEBACK ACCESS:          0  HIT:          0  MISS:          0
cpu0_L1I TRANSLATION ACCESS:          0  HIT:          0  MISS:          0
cpu0_L1I PREFETCH  REQUESTED:          0  ISSUED:          0  USEFUL:          0  USELESS:          0
cpu0_L1I AVERAGE MISS LATENCY: -nan cycles
cpu0_L1I MSHR FULL EVENTS: 0 MSHR MERGE EVENTS: 0
cpu0_STLB TOTAL     ACCESS:    3644377  HIT:    2025356  MISS:    1619021
cpu0_STLB LOAD      ACCESS:    2364692  HIT:    1505986  MISS:     858706
cpu0_STLB RFO       ACCESS:    1279685  HIT:     519370  MISS:     760315
cpu0_STLB PREFETCH  ACCESS:          0  HIT:          0  MISS:          0
cpu0_STLB WRITEBACK ACCESS:          0  HIT:          0  MISS:          0
cpu0_STLB TRANSLATION ACCESS:          0  HIT:          0  MISS:          0
cpu0_STLB PREFETCH  REQUESTED:          0  ISSUED:          0  USEFUL:          0  USELESS:          0
cpu0_STLB AVERAGE MISS LATENCY: 9.4374 cycles
cpu0_STLB MSHR FULL EVENTS: 0 MSHR MERGE EVENTS: 0
cpu0_L1D TOTAL     ACCESS:   30520414  HIT:   21997449  MISS:    8522965
cpu0_L1D LOAD      ACCESS:   23312717  HIT:   14817991  MISS:    8494726
cpu0_L1D RFO       ACCESS:    5647494  HIT:    5624694  MISS:      22800
cpu0_L1D PREFETCH  ACCESS:          0  HIT:          0  MISS:          0
cpu0_L1D WRITEBACK ACCESS:          0  HIT:          0  MISS:          0
cpu0_L1D TRANSLATION ACCESS:    1560203  HIT:    1554764  MISS:       5439
cpu0_L1D PREFETCH  REQUESTED:          0  ISSUED:          0  USEFUL:          0  USELESS:          0
cpu0_L1D AVERAGE MISS LATENCY: 31.1792 cycles
cpu0_L1D MSHR FULL EVENTS: 199068 MSHR MERGE EVENTS: 191261
cpu0_L2C TOTAL     ACCESS:   11374476  HIT:    4961044  MISS:    6413416
cpu0_L2C LOAD      ACCESS:    8494725  HIT:    2103948  MISS:    6390777
cpu0_L2C RFO       ACCESS:      22800  HIT:        289  MISS:      22511
cpu0_L2C PREFETCH  ACCESS:          0  HIT:          0  MISS:          0
cpu0_L2C WRITEBACK ACCESS:    2851512  HIT:    2851496  MISS:         16
cpu0_L2C TRANSLATION ACCESS:       5439  HIT:       5311  MISS:        128
cpu0_L2C PREFETCH  REQUESTED:          0  ISSUED:          0  USEFUL:          0  USELESS:          0
cpu0_L2C AVERAGE MISS LATENCY: 27.5348 cycles
cpu0_L2C MSHR FULL EVENTS: 0 MSHR MERGE EVENTS: 0
LLC TOTAL     ACCESS:   12826838  HIT:    6025664  MISS:     387752
LLC LOAD      ACCESS:    6390768  HIT:    6014283  MISS:     376485
LLC RFO       ACCESS:      22511  HIT:      11247  MISS:      11264
LLC PREFETCH  ACCESS:          0  HIT:          0  MISS:          0
LLC WRITEBACK ACCESS:    6413431  HIT:          9  MISS:    6413422
LLC TRANSLATION ACCESS:        128  HIT:        125  MISS:          3
LLC PREFETCH  REQUESTED:          0  ISSUED:          0  USEFUL:          0  USELESS:          0
LLC AVERAGE MISS LATENCY: 109.085 cycles
LLC MSHR FULL EVENTS: 0 MSHR MERGE EVENTS: 0
blocks bypassed = 0
blocks filled to llc = 0

DRAM Statistics
 CHANNEL 0
 RQ ROW_BUFFER_HIT:     212988  ROW_BUFFER_MISS:     174764
 DBUS AVG_CONGESTED_CYCLE:    3.96211
 WQ ROW_BUFFER_HIT:      16975  ROW_BUFFER_MISS:     102034  FULL:          0


CPU 0 Branch Prediction Accuracy: 81.7743% MPKI: 31.8287 Average ROB Occupancy at Mispredict: 21.2306
Branch type MPKI
BRANCH_DIRECT_JUMP: 0
BRANCH_INDIRECT: 0
BRANCH_CONDITIONAL: 31.8287
BRANCH_DIRECT_CALL: 0
BRANCH_INDIRECT_CALL: 0
BRANCH_RETURN: 0

