
*** ChampSim Multicore Out-of-Order Simulator ***

Warmup Instructions: 40000000
Simulation Instructions: 100000000
Number of CPUs: 1
Off-chip DRAM Size: 4 GiB Channels: 1 Width: 64-bit Data Rate: 3200 MT/s

VirtualMemory physical capacity: 4293914624 num_ppages: 1048319
VirtualMemory page size: 4096 log2_page_size: 12

CPU 0 runs ../../../../ICS/traces//PageRankDelta_35250M.champsim.xz
CPU 0 Bimodal branch predictor
Basic BTB sets: 1024 ways: 8 indirect buffer size: 4096 RAS size: 64
Heartbeat CPU 0 instructions: 10000000 cycles: 2500056 heartbeat IPC: 3.99991 cumulative IPC: 3.99991 (Simulation time: 0 hr 0 min 40 sec) 
Heartbeat CPU 0 instructions: 20000000 cycles: 5000056 heartbeat IPC: 4 cumulative IPC: 3.99996 (Simulation time: 0 hr 1 min 17 sec) 
Heartbeat CPU 0 instructions: 30000000 cycles: 7500056 heartbeat IPC: 4 cumulative IPC: 3.99997 (Simulation time: 0 hr 1 min 48 sec) 
Heartbeat CPU 0 instructions: 40000000 cycles: 10000056 heartbeat IPC: 4 cumulative IPC: 3.99998 (Simulation time: 0 hr 2 min 17 sec) 

Warmup complete CPU 0 instructions: 40000004 cycles: 10000057 (Simulation time: 0 hr 2 min 17 sec) 

Heartbeat CPU 0 instructions: 50000003 cycles: 40535651 heartbeat IPC: 0.327487 cumulative IPC: 0.327487 (Simulation time: 0 hr 3 min 40 sec) 
Heartbeat CPU 0 instructions: 60000003 cycles: 59535227 heartbeat IPC: 0.526328 cumulative IPC: 0.403754 (Simulation time: 0 hr 4 min 49 sec) 
Heartbeat CPU 0 instructions: 70000001 cycles: 64138692 heartbeat IPC: 2.17228 cumulative IPC: 0.554133 (Simulation time: 0 hr 5 min 39 sec) 
Heartbeat CPU 0 instructions: 80000000 cycles: 82657432 heartbeat IPC: 0.539993 cumulative IPC: 0.550529 (Simulation time: 0 hr 8 min 5 sec) 
Heartbeat CPU 0 instructions: 90000002 cycles: 118851653 heartbeat IPC: 0.276287 cumulative IPC: 0.459341 (Simulation time: 0 hr 12 min 20 sec) 
Heartbeat CPU 0 instructions: 100000002 cycles: 200004775 heartbeat IPC: 0.123224 cumulative IPC: 0.315782 (Simulation time: 0 hr 18 min 32 sec) 
Heartbeat CPU 0 instructions: 110000001 cycles: 235800420 heartbeat IPC: 0.279364 cumulative IPC: 0.310008 (Simulation time: 0 hr 20 min 43 sec) 
Heartbeat CPU 0 instructions: 120000001 cycles: 240698440 heartbeat IPC: 2.04164 cumulative IPC: 0.346773 (Simulation time: 0 hr 21 min 17 sec) 
Heartbeat CPU 0 instructions: 130000002 cycles: 246780247 heartbeat IPC: 1.64425 cumulative IPC: 0.380099 (Simulation time: 0 hr 21 min 56 sec) 
Heartbeat CPU 0 instructions: 140000002 cycles: 253353847 heartbeat IPC: 1.52124 cumulative IPC: 0.410924 (Simulation time: 0 hr 22 min 31 sec) 
Finished CPU 0 instructions: 100000003 cycles: 243353791 cumulative IPC: 0.410924 (Simulation time: 0 hr 22 min 31 sec) 

ChampSim completed all CPUs

Region of Interest Statistics

CPU 0 cumulative IPC: 0.410924 instructions: 100000003 cycles: 243353791
cpu0_DTLB TOTAL     ACCESS:   20518869  HIT:   20480305  MISS:      38564
cpu0_DTLB LOAD      ACCESS:   14553843  HIT:   14532694  MISS:      21149
cpu0_DTLB RFO       ACCESS:    5965026  HIT:    5947611  MISS:      17415
cpu0_DTLB PREFETCH  ACCESS:          0  HIT:          0  MISS:          0
cpu0_DTLB WRITEBACK ACCESS:          0  HIT:          0  MISS:          0
cpu0_DTLB TRANSLATION ACCESS:          0  HIT:          0  MISS:          0
cpu0_DTLB PREFETCH  REQUESTED:          0  ISSUED:          0  USEFUL:          0  USELESS:          0
cpu0_DTLB AVERAGE MISS LATENCY: 122.765 cycles
cpu0_DTLB MSHR FULL EVENTS: 0 MSHR MERGE EVENTS: 193590
cpu0_ITLB TOTAL     ACCESS:    1813502  HIT:    1813493  MISS:          9
cpu0_ITLB LOAD      ACCESS:    1813502  HIT:    1813493  MISS:          9
cpu0_ITLB RFO       ACCESS:          0  HIT:          0  MISS:          0
cpu0_ITLB PREFETCH  ACCESS:          0  HIT:          0  MISS:          0
cpu0_ITLB WRITEBACK ACCESS:          0  HIT:          0  MISS:          0
cpu0_ITLB TRANSLATION ACCESS:          0  HIT:          0  MISS:          0
cpu0_ITLB PREFETCH  REQUESTED:          0  ISSUED:          0  USEFUL:          0  USELESS:          0
cpu0_ITLB AVERAGE MISS LATENCY: 311.667 cycles
cpu0_ITLB MSHR FULL EVENTS: 0 MSHR MERGE EVENTS: 0
cpu0_L1I TOTAL     ACCESS:        306  HIT:        186  MISS:        120
cpu0_L1I LOAD      ACCESS:        306  HIT:        186  MISS:        120
cpu0_L1I RFO       ACCESS:          0  HIT:          0  MISS:          0
cpu0_L1I PREFETCH  ACCESS:          0  HIT:          0  MISS:          0
cpu0_L1I WRITEBACK ACCESS:          0  HIT:          0  MISS:          0
cpu0_L1I TRANSLATION ACCESS:          0  HIT:          0  MISS:          0
cpu0_L1I PREFETCH  REQUESTED:          0  ISSUED:          0  USEFUL:          0  USELESS:          0
cpu0_L1I AVERAGE MISS LATENCY: 210.942 cycles
cpu0_L1I MSHR FULL EVENTS: 0 MSHR MERGE EVENTS: 0
cpu0_STLB TOTAL     ACCESS:      38573  HIT:         36  MISS:      38537
cpu0_STLB LOAD      ACCESS:      21158  HIT:         31  MISS:      21127
cpu0_STLB RFO       ACCESS:      17415  HIT:          5  MISS:      17410
cpu0_STLB PREFETCH  ACCESS:          0  HIT:          0  MISS:          0
cpu0_STLB WRITEBACK ACCESS:          0  HIT:          0  MISS:          0
cpu0_STLB TRANSLATION ACCESS:          0  HIT:          0  MISS:          0
cpu0_STLB PREFETCH  REQUESTED:          0  ISSUED:          0  USEFUL:          0  USELESS:          0
cpu0_STLB AVERAGE MISS LATENCY: 114.916 cycles
cpu0_STLB MSHR FULL EVENTS: 0 MSHR MERGE EVENTS: 0
cpu0_L1D TOTAL     ACCESS:    9537785  HIT:    7073906  MISS:    2463879
cpu0_L1D LOAD      ACCESS:    6993832  HIT:    5643955  MISS:    1349877
cpu0_L1D RFO       ACCESS:    2505416  HIT:    1391822  MISS:    1113594
cpu0_L1D PREFETCH  ACCESS:          0  HIT:          0  MISS:          0
cpu0_L1D WRITEBACK ACCESS:          0  HIT:          0  MISS:          0
cpu0_L1D TRANSLATION ACCESS:      38537  HIT:      38129  MISS:        408
cpu0_L1D PREFETCH  REQUESTED:          0  ISSUED:          0  USEFUL:          0  USELESS:          0
cpu0_L1D AVERAGE MISS LATENCY: 440.4 cycles
cpu0_L1D MSHR FULL EVENTS: 61084786 MSHR MERGE EVENTS: 7545811
cpu0_L2C TOTAL     ACCESS:    3665700  HIT:    1202104  MISS:    2463596
cpu0_L2C LOAD      ACCESS:    1349997  HIT:         40  MISS:    1349957
cpu0_L2C RFO       ACCESS:    1113594  HIT:          0  MISS:    1113594
cpu0_L2C PREFETCH  ACCESS:          0  HIT:          0  MISS:          0
cpu0_L2C WRITEBACK ACCESS:    1201701  HIT:    1201701  MISS:          0
cpu0_L2C TRANSLATION ACCESS:        408  HIT:        363  MISS:         45
cpu0_L2C PREFETCH  REQUESTED:          0  ISSUED:          0  USEFUL:          0  USELESS:          0
cpu0_L2C AVERAGE MISS LATENCY: 430.454 cycles
cpu0_L2C MSHR FULL EVENTS: 0 MSHR MERGE EVENTS: 0
LLC TOTAL     ACCESS:    4927192  HIT:     335807  MISS:    2127789
LLC LOAD      ACCESS:    1349957  HIT:      91357  MISS:    1258600
LLC RFO       ACCESS:    1113594  HIT:     244439  MISS:     869155
LLC PREFETCH  ACCESS:          0  HIT:          0  MISS:          0
LLC WRITEBACK ACCESS:    2463596  HIT:          0  MISS:    2463596
LLC TRANSLATION ACCESS:         45  HIT:         11  MISS:         34
LLC PREFETCH  REQUESTED:          0  ISSUED:          0  USEFUL:          0  USELESS:          0
LLC AVERAGE MISS LATENCY: 475.073 cycles
LLC MSHR FULL EVENTS: 0 MSHR MERGE EVENTS: 0
blocks bypassed = 0
blocks filled to llc = 0

DRAM Statistics
 CHANNEL 0
 RQ ROW_BUFFER_HIT:     363305  ROW_BUFFER_MISS:    1764479
 DBUS AVG_CONGESTED_CYCLE:    3.98416
 WQ ROW_BUFFER_HIT:     250570  ROW_BUFFER_MISS:     774045  FULL:          0


CPU 0 Branch Prediction Accuracy: 98.8599% MPKI: 2.49073 Average ROB Occupancy at Mispredict: 49.5608
Branch type MPKI
BRANCH_DIRECT_JUMP: 0.00026
BRANCH_INDIRECT: 0
BRANCH_CONDITIONAL: 2.49009
BRANCH_DIRECT_CALL: 0.0002
BRANCH_INDIRECT_CALL: 0
BRANCH_RETURN: 0.00018

