
*** ChampSim Multicore Out-of-Order Simulator ***

Warmup Instructions: 40000000
Simulation Instructions: 100000000
Number of CPUs: 1
Off-chip DRAM Size: 4 GiB Channels: 1 Width: 64-bit Data Rate: 3200 MT/s

VirtualMemory physical capacity: 4293914624 num_ppages: 1048319
VirtualMemory page size: 4096 log2_page_size: 12

CPU 0 runs ../../../../ICS/traces//BFSCC_22000M.champsim.xz
CPU 0 Bimodal branch predictor
Basic BTB sets: 1024 ways: 8 indirect buffer size: 4096 RAS size: 64
Heartbeat CPU 0 instructions: 10000004 cycles: 2911402 heartbeat IPC: 3.43477 cumulative IPC: 3.43477 (Simulation time: 0 hr 0 min 41 sec) 
Heartbeat CPU 0 instructions: 20000000 cycles: 5861154 heartbeat IPC: 3.39011 cumulative IPC: 3.4123 (Simulation time: 0 hr 1 min 31 sec) 
Heartbeat CPU 0 instructions: 30000000 cycles: 8722341 heartbeat IPC: 3.49505 cumulative IPC: 3.43944 (Simulation time: 0 hr 2 min 29 sec) 
Heartbeat CPU 0 instructions: 40000000 cycles: 11531423 heartbeat IPC: 3.55988 cumulative IPC: 3.46878 (Simulation time: 0 hr 3 min 30 sec) 

Warmup complete CPU 0 instructions: 40000001 cycles: 11531424 (Simulation time: 0 hr 3 min 30 sec) 

Heartbeat CPU 0 instructions: 50000002 cycles: 30075856 heartbeat IPC: 0.539245 cumulative IPC: 0.539245 (Simulation time: 0 hr 5 min 26 sec) 
Heartbeat CPU 0 instructions: 60000004 cycles: 47845574 heartbeat IPC: 0.562755 cumulative IPC: 0.55075 (Simulation time: 0 hr 7 min 5 sec) 
Heartbeat CPU 0 instructions: 70000003 cycles: 64211096 heartbeat IPC: 0.611041 cumulative IPC: 0.56948 (Simulation time: 0 hr 8 min 44 sec) 
Heartbeat CPU 0 instructions: 80000003 cycles: 75649894 heartbeat IPC: 0.874218 cumulative IPC: 0.623845 (Simulation time: 0 hr 10 min 4 sec) 
Heartbeat CPU 0 instructions: 90000001 cycles: 79152988 heartbeat IPC: 2.85462 cumulative IPC: 0.739409 (Simulation time: 0 hr 11 min 3 sec) 
Heartbeat CPU 0 instructions: 100000003 cycles: 82107747 heartbeat IPC: 3.38437 cumulative IPC: 0.850143 (Simulation time: 0 hr 11 min 51 sec) 
Heartbeat CPU 0 instructions: 110000002 cycles: 84643613 heartbeat IPC: 3.94343 cumulative IPC: 0.957433 (Simulation time: 0 hr 12 min 33 sec) 
Heartbeat CPU 0 instructions: 120000002 cycles: 89269409 heartbeat IPC: 2.16179 cumulative IPC: 1.0291 (Simulation time: 0 hr 13 min 13 sec) 
Heartbeat CPU 0 instructions: 130000000 cycles: 98020345 heartbeat IPC: 1.14273 cumulative IPC: 1.0406 (Simulation time: 0 hr 13 min 50 sec) 
Heartbeat CPU 0 instructions: 140000001 cycles: 103812286 heartbeat IPC: 1.72654 cumulative IPC: 1.08365 (Simulation time: 0 hr 14 min 27 sec) 
Finished CPU 0 instructions: 100000000 cycles: 92280862 cumulative IPC: 1.08365 (Simulation time: 0 hr 14 min 27 sec) 

ChampSim completed all CPUs

Region of Interest Statistics

CPU 0 cumulative IPC: 1.08365 instructions: 100000000 cycles: 92280862
cpu0_DTLB TOTAL     ACCESS:   16064408  HIT:   15303758  MISS:     760650
cpu0_DTLB LOAD      ACCESS:   14479892  HIT:   13720316  MISS:     759576
cpu0_DTLB RFO       ACCESS:    1584516  HIT:    1583442  MISS:       1074
cpu0_DTLB PREFETCH  ACCESS:          0  HIT:          0  MISS:          0
cpu0_DTLB WRITEBACK ACCESS:          0  HIT:          0  MISS:          0
cpu0_DTLB TRANSLATION ACCESS:          0  HIT:          0  MISS:          0
cpu0_DTLB PREFETCH  REQUESTED:          0  ISSUED:          0  USEFUL:          0  USELESS:          0
cpu0_DTLB AVERAGE MISS LATENCY: 11.9067 cycles
cpu0_DTLB MSHR FULL EVENTS: 0 MSHR MERGE EVENTS: 147046
cpu0_ITLB TOTAL     ACCESS:    8724568  HIT:    8724559  MISS:          9
cpu0_ITLB LOAD      ACCESS:    8724568  HIT:    8724559  MISS:          9
cpu0_ITLB RFO       ACCESS:          0  HIT:          0  MISS:          0
cpu0_ITLB PREFETCH  ACCESS:          0  HIT:          0  MISS:          0
cpu0_ITLB WRITEBACK ACCESS:          0  HIT:          0  MISS:          0
cpu0_ITLB TRANSLATION ACCESS:          0  HIT:          0  MISS:          0
cpu0_ITLB PREFETCH  REQUESTED:          0  ISSUED:          0  USEFUL:          0  USELESS:          0
cpu0_ITLB AVERAGE MISS LATENCY: 265.556 cycles
cpu0_ITLB MSHR FULL EVENTS: 0 MSHR MERGE EVENTS: 0
cpu0_L1I TOTAL     ACCESS:        269  HIT:        154  MISS:        115
cpu0_L1I LOAD      ACCESS:        269  HIT:        154  MISS:        115
cpu0_L1I RFO       ACCESS:          0  HIT:          0  MISS:          0
cpu0_L1I PREFETCH  ACCESS:          0  HIT:          0  MISS:          0
cpu0_L1I WRITEBACK ACCESS:          0  HIT:          0  MISS:          0
cpu0_L1I TRANSLATION ACCESS:          0  HIT:          0  MISS:          0
cpu0_L1I PREFETCH  REQUESTED:          0  ISSUED:          0  USEFUL:          0  USELESS:          0
cpu0_L1I AVERAGE MISS LATENCY: 175.965 cycles
cpu0_L1I MSHR FULL EVENTS: 0 MSHR MERGE EVENTS: 1
cpu0_STLB TOTAL     ACCESS:     760659  HIT:     749334  MISS:      11325
cpu0_STLB LOAD      ACCESS:     759585  HIT:     748904  MISS:      10681
cpu0_STLB RFO       ACCESS:       1074  HIT:        430  MISS:        644
cpu0_STLB PREFETCH  ACCESS:          0  HIT:          0  MISS:          0
cpu0_STLB WRITEBACK ACCESS:          0  HIT:          0  MISS:          0
cpu0_STLB TRANSLATION ACCESS:          0  HIT:          0  MISS:          0
cpu0_STLB PREFETCH  REQUESTED:          0  ISSUED:          0  USEFUL:          0  USELESS:          0
cpu0_STLB AVERAGE MISS LATENCY: 195.822 cycles
cpu0_STLB MSHR FULL EVENTS: 0 MSHR MERGE EVENTS: 0
cpu0_L1D TOTAL     ACCESS:    9455909  HIT:    7728277  MISS:    1727632
cpu0_L1D LOAD      ACCESS:    8011906  HIT:    6339561  MISS:    1672345
cpu0_L1D RFO       ACCESS:    1432678  HIT:    1379742  MISS:      52936
cpu0_L1D PREFETCH  ACCESS:          0  HIT:          0  MISS:          0
cpu0_L1D WRITEBACK ACCESS:          0  HIT:          0  MISS:          0
cpu0_L1D TRANSLATION ACCESS:      11325  HIT:       8974  MISS:       2351
cpu0_L1D PREFETCH  REQUESTED:          0  ISSUED:          0  USEFUL:          0  USELESS:          0
cpu0_L1D AVERAGE MISS LATENCY: 87.4096 cycles
cpu0_L1D MSHR FULL EVENTS: 1779 MSHR MERGE EVENTS: 2600748
cpu0_L2C TOTAL     ACCESS:    1796843  HIT:     257045  MISS:    1539798
cpu0_L2C LOAD      ACCESS:    1672460  HIT:     185595  MISS:    1486865
cpu0_L2C RFO       ACCESS:      52936  HIT:         26  MISS:      52910
cpu0_L2C PREFETCH  ACCESS:          0  HIT:          0  MISS:          0
cpu0_L2C WRITEBACK ACCESS:      69096  HIT:      69096  MISS:          0
cpu0_L2C TRANSLATION ACCESS:       2351  HIT:       2328  MISS:         23
cpu0_L2C PREFETCH  REQUESTED:          0  ISSUED:          0  USEFUL:          0  USELESS:          0
cpu0_L2C AVERAGE MISS LATENCY: 86.731 cycles
cpu0_L2C MSHR FULL EVENTS: 0 MSHR MERGE EVENTS: 0
LLC TOTAL     ACCESS:    3079595  HIT:     852651  MISS:     687147
LLC LOAD      ACCESS:    1486864  HIT:     825172  MISS:     661692
LLC RFO       ACCESS:      52910  HIT:      27461  MISS:      25449
LLC PREFETCH  ACCESS:          0  HIT:          0  MISS:          0
LLC WRITEBACK ACCESS:    1539798  HIT:          1  MISS:    1539797
LLC TRANSLATION ACCESS:         23  HIT:         17  MISS:          6
LLC PREFETCH  REQUESTED:          0  ISSUED:          0  USEFUL:          0  USELESS:          0
LLC AVERAGE MISS LATENCY: 148.286 cycles
LLC MSHR FULL EVENTS: 0 MSHR MERGE EVENTS: 0
blocks bypassed = 0
blocks filled to llc = 0

DRAM Statistics
 CHANNEL 0
 RQ ROW_BUFFER_HIT:     172815  ROW_BUFFER_MISS:     514332
 DBUS AVG_CONGESTED_CYCLE:    3.68538
 WQ ROW_BUFFER_HIT:      18716  ROW_BUFFER_MISS:      15233  FULL:          0


CPU 0 Branch Prediction Accuracy: 94.0529% MPKI: 14.8888 Average ROB Occupancy at Mispredict: 72.5913
Branch type MPKI
BRANCH_DIRECT_JUMP: 0.00024
BRANCH_INDIRECT: 0
BRANCH_CONDITIONAL: 14.8882
BRANCH_DIRECT_CALL: 0.00017
BRANCH_INDIRECT_CALL: 0
BRANCH_RETURN: 0.00017

