
*** ChampSim Multicore Out-of-Order Simulator ***

Warmup Instructions: 40000000
Simulation Instructions: 100000000
Number of CPUs: 1
Off-chip DRAM Size: 4 GiB Channels: 1 Width: 64-bit Data Rate: 3200 MT/s

VirtualMemory physical capacity: 4293914624 num_ppages: 1048319
VirtualMemory page size: 4096 log2_page_size: 12

CPU 0 runs ../../../../ICS/traces//bfs-10.trace.gz
CPU 0 Bimodal branch predictor
Basic BTB sets: 1024 ways: 8 indirect buffer size: 4096 RAS size: 64
Heartbeat CPU 0 instructions: 10000003 cycles: 2500167 heartbeat IPC: 3.99973 cumulative IPC: 3.99973 (Simulation time: 0 hr 0 min 40 sec) 
Heartbeat CPU 0 instructions: 20000002 cycles: 5044321 heartbeat IPC: 3.93058 cumulative IPC: 3.96486 (Simulation time: 0 hr 1 min 25 sec) 
Heartbeat CPU 0 instructions: 30000004 cycles: 7575038 heartbeat IPC: 3.95145 cumulative IPC: 3.96038 (Simulation time: 0 hr 2 min 13 sec) 
Heartbeat CPU 0 instructions: 40000001 cycles: 10106014 heartbeat IPC: 3.95104 cumulative IPC: 3.95804 (Simulation time: 0 hr 2 min 59 sec) 

Warmup complete CPU 0 instructions: 40000001 cycles: 10106014 (Simulation time: 0 hr 2 min 59 sec) 

Heartbeat CPU 0 instructions: 50000000 cycles: 39396979 heartbeat IPC: 0.341402 cumulative IPC: 0.341402 (Simulation time: 0 hr 4 min 37 sec) 
Heartbeat CPU 0 instructions: 60000003 cycles: 74099952 heartbeat IPC: 0.28816 cumulative IPC: 0.31253 (Simulation time: 0 hr 6 min 23 sec) 
Heartbeat CPU 0 instructions: 70000004 cycles: 103308795 heartbeat IPC: 0.342362 cumulative IPC: 0.321879 (Simulation time: 0 hr 7 min 53 sec) 
Heartbeat CPU 0 instructions: 80000002 cycles: 124767492 heartbeat IPC: 0.466011 cumulative IPC: 0.348853 (Simulation time: 0 hr 8 min 56 sec) 
Heartbeat CPU 0 instructions: 90000004 cycles: 128372271 heartbeat IPC: 2.7741 cumulative IPC: 0.422775 (Simulation time: 0 hr 9 min 34 sec) 
Heartbeat CPU 0 instructions: 100000000 cycles: 134592981 heartbeat IPC: 1.60753 cumulative IPC: 0.481978 (Simulation time: 0 hr 10 min 20 sec) 
Heartbeat CPU 0 instructions: 110000002 cycles: 150205375 heartbeat IPC: 0.640517 cumulative IPC: 0.499645 (Simulation time: 0 hr 11 min 16 sec) 
Heartbeat CPU 0 instructions: 120000000 cycles: 176580582 heartbeat IPC: 0.379144 cumulative IPC: 0.480554 (Simulation time: 0 hr 12 min 33 sec) 
Heartbeat CPU 0 instructions: 130000002 cycles: 204511003 heartbeat IPC: 0.358033 cumulative IPC: 0.462951 (Simulation time: 0 hr 13 min 50 sec) 
Heartbeat CPU 0 instructions: 140000002 cycles: 237035318 heartbeat IPC: 0.307462 cumulative IPC: 0.440666 (Simulation time: 0 hr 14 min 44 sec) 
Finished CPU 0 instructions: 100000001 cycles: 226929304 cumulative IPC: 0.440666 (Simulation time: 0 hr 14 min 44 sec) 

ChampSim completed all CPUs

Region of Interest Statistics

CPU 0 cumulative IPC: 0.440666 instructions: 100000001 cycles: 226929304
cpu0_DTLB TOTAL     ACCESS:   21273108  HIT:   21173841  MISS:      99267
cpu0_DTLB LOAD      ACCESS:   18368605  HIT:   18271161  MISS:      97444
cpu0_DTLB RFO       ACCESS:    2904503  HIT:    2902680  MISS:       1823
cpu0_DTLB PREFETCH  ACCESS:          0  HIT:          0  MISS:          0
cpu0_DTLB WRITEBACK ACCESS:          0  HIT:          0  MISS:          0
cpu0_DTLB TRANSLATION ACCESS:          0  HIT:          0  MISS:          0
cpu0_DTLB PREFETCH  REQUESTED:          0  ISSUED:          0  USEFUL:          0  USELESS:          0
cpu0_DTLB AVERAGE MISS LATENCY: 31.6473 cycles
cpu0_DTLB MSHR FULL EVENTS: 0 MSHR MERGE EVENTS: 27003
cpu0_ITLB TOTAL     ACCESS:   10818647  HIT:   10818647  MISS:          0
cpu0_ITLB LOAD      ACCESS:   10818647  HIT:   10818647  MISS:          0
cpu0_ITLB RFO       ACCESS:          0  HIT:          0  MISS:          0
cpu0_ITLB PREFETCH  ACCESS:          0  HIT:          0  MISS:          0
cpu0_ITLB WRITEBACK ACCESS:          0  HIT:          0  MISS:          0
cpu0_ITLB TRANSLATION ACCESS:          0  HIT:          0  MISS:          0
cpu0_ITLB PREFETCH  REQUESTED:          0  ISSUED:          0  USEFUL:          0  USELESS:          0
cpu0_ITLB AVERAGE MISS LATENCY: -nan cycles
cpu0_ITLB MSHR FULL EVENTS: 0 MSHR MERGE EVENTS: 0
cpu0_L1I TOTAL     ACCESS:       1076  HIT:       1061  MISS:         15
cpu0_L1I LOAD      ACCESS:       1076  HIT:       1061  MISS:         15
cpu0_L1I RFO       ACCESS:          0  HIT:          0  MISS:          0
cpu0_L1I PREFETCH  ACCESS:          0  HIT:          0  MISS:          0
cpu0_L1I WRITEBACK ACCESS:          0  HIT:          0  MISS:          0
cpu0_L1I TRANSLATION ACCESS:          0  HIT:          0  MISS:          0
cpu0_L1I PREFETCH  REQUESTED:          0  ISSUED:          0  USEFUL:          0  USELESS:          0
cpu0_L1I AVERAGE MISS LATENCY: 203.4 cycles
cpu0_L1I MSHR FULL EVENTS: 0 MSHR MERGE EVENTS: 0
cpu0_STLB TOTAL     ACCESS:      99267  HIT:      12147  MISS:      87120
cpu0_STLB LOAD      ACCESS:      97444  HIT:      11353  MISS:      86091
cpu0_STLB RFO       ACCESS:       1823  HIT:        794  MISS:       1029
cpu0_STLB PREFETCH  ACCESS:          0  HIT:          0  MISS:          0
cpu0_STLB WRITEBACK ACCESS:          0  HIT:          0  MISS:          0
cpu0_STLB TRANSLATION ACCESS:          0  HIT:          0  MISS:          0
cpu0_STLB PREFETCH  REQUESTED:          0  ISSUED:          0  USEFUL:          0  USELESS:          0
cpu0_STLB AVERAGE MISS LATENCY: 26.8132 cycles
cpu0_STLB MSHR FULL EVENTS: 0 MSHR MERGE EVENTS: 0
cpu0_L1D TOTAL     ACCESS:   18852326  HIT:   15722582  MISS:    3129744
cpu0_L1D LOAD      ACCESS:   15729931  HIT:   12682458  MISS:    3047473
cpu0_L1D RFO       ACCESS:    3036391  HIT:    2957225  MISS:      79166
cpu0_L1D PREFETCH  ACCESS:          0  HIT:          0  MISS:          0
cpu0_L1D WRITEBACK ACCESS:          0  HIT:          0  MISS:          0
cpu0_L1D TRANSLATION ACCESS:      86004  HIT:      82899  MISS:       3105
cpu0_L1D PREFETCH  REQUESTED:          0  ISSUED:          0  USEFUL:          0  USELESS:          0
cpu0_L1D AVERAGE MISS LATENCY: 43.2596 cycles
cpu0_L1D MSHR FULL EVENTS: 12443 MSHR MERGE EVENTS: 601558
cpu0_L2C TOTAL     ACCESS:    3403094  HIT:    1718231  MISS:    1684857
cpu0_L2C LOAD      ACCESS:    3047488  HIT:    1435474  MISS:    1612014
cpu0_L2C RFO       ACCESS:      79166  HIT:       6403  MISS:      72763
cpu0_L2C PREFETCH  ACCESS:          0  HIT:          0  MISS:          0
cpu0_L2C WRITEBACK ACCESS:     273335  HIT:     273329  MISS:          6
cpu0_L2C TRANSLATION ACCESS:       3105  HIT:       3025  MISS:         80
cpu0_L2C PREFETCH  REQUESTED:          0  ISSUED:          0  USEFUL:          0  USELESS:          0
cpu0_L2C AVERAGE MISS LATENCY: 60.7603 cycles
cpu0_L2C MSHR FULL EVENTS: 0 MSHR MERGE EVENTS: 0
LLC TOTAL     ACCESS:    3369718  HIT:    1191202  MISS:     493655
LLC LOAD      ACCESS:    1612012  HIT:    1119780  MISS:     492232
LLC RFO       ACCESS:      72763  HIT:      71352  MISS:       1411
LLC PREFETCH  ACCESS:          0  HIT:          0  MISS:          0
LLC WRITEBACK ACCESS:    1684863  HIT:          2  MISS:    1684861
LLC TRANSLATION ACCESS:         80  HIT:         68  MISS:         12
LLC PREFETCH  REQUESTED:          0  ISSUED:          0  USEFUL:          0  USELESS:          0
LLC AVERAGE MISS LATENCY: 136.702 cycles
LLC MSHR FULL EVENTS: 0 MSHR MERGE EVENTS: 0
blocks bypassed = 0
blocks filled to llc = 0

DRAM Statistics
 CHANNEL 0
 RQ ROW_BUFFER_HIT:     131998  ROW_BUFFER_MISS:     361656
 DBUS AVG_CONGESTED_CYCLE:    3.30804
 WQ ROW_BUFFER_HIT:      16009  ROW_BUFFER_MISS:      33086  FULL:          0


CPU 0 Branch Prediction Accuracy: 82.7506% MPKI: 36.2664 Average ROB Occupancy at Mispredict: 8.70992
Branch type MPKI
BRANCH_DIRECT_JUMP: 5e-05
BRANCH_INDIRECT: 1e-05
BRANCH_CONDITIONAL: 36.2661
BRANCH_DIRECT_CALL: 0.00012
BRANCH_INDIRECT_CALL: 2e-05
BRANCH_RETURN: 0.00012

