
*** ChampSim Multicore Out-of-Order Simulator ***

Warmup Instructions: 40000000
Simulation Instructions: 100000000
Number of CPUs: 1
Off-chip DRAM Size: 4 GiB Channels: 1 Width: 64-bit Data Rate: 3200 MT/s

VirtualMemory physical capacity: 4293914624 num_ppages: 1048319
VirtualMemory page size: 4096 log2_page_size: 12

CPU 0 runs ../../../../ICS/traces//bfs-14.trace.gz
CPU 0 Bimodal branch predictor
Basic BTB sets: 1024 ways: 8 indirect buffer size: 4096 RAS size: 64
Heartbeat CPU 0 instructions: 10000001 cycles: 2500160 heartbeat IPC: 3.99974 cumulative IPC: 3.99974 (Simulation time: 0 hr 0 min 29 sec) 
Heartbeat CPU 0 instructions: 20000000 cycles: 5241283 heartbeat IPC: 3.64814 cumulative IPC: 3.81586 (Simulation time: 0 hr 1 min 6 sec) 
Heartbeat CPU 0 instructions: 30000001 cycles: 7989312 heartbeat IPC: 3.63897 cumulative IPC: 3.75502 (Simulation time: 0 hr 1 min 43 sec) 
Heartbeat CPU 0 instructions: 40000002 cycles: 10709329 heartbeat IPC: 3.67645 cumulative IPC: 3.73506 (Simulation time: 0 hr 2 min 22 sec) 

Warmup complete CPU 0 instructions: 40000002 cycles: 10709329 (Simulation time: 0 hr 2 min 22 sec) 

Heartbeat CPU 0 instructions: 50000002 cycles: 37581170 heartbeat IPC: 0.372137 cumulative IPC: 0.372137 (Simulation time: 0 hr 3 min 18 sec) 
Heartbeat CPU 0 instructions: 60000004 cycles: 56364709 heartbeat IPC: 0.532381 cumulative IPC: 0.438065 (Simulation time: 0 hr 4 min 8 sec) 
Heartbeat CPU 0 instructions: 70000001 cycles: 58883022 heartbeat IPC: 3.97091 cumulative IPC: 0.622747 (Simulation time: 0 hr 4 min 40 sec) 
Heartbeat CPU 0 instructions: 80000001 cycles: 66719610 heartbeat IPC: 1.27607 cumulative IPC: 0.714155 (Simulation time: 0 hr 5 min 18 sec) 
Heartbeat CPU 0 instructions: 90000000 cycles: 82838180 heartbeat IPC: 0.620402 cumulative IPC: 0.693204 (Simulation time: 0 hr 6 min 12 sec) 
Heartbeat CPU 0 instructions: 100000000 cycles: 108393119 heartbeat IPC: 0.391314 cumulative IPC: 0.614227 (Simulation time: 0 hr 7 min 28 sec) 
Heartbeat CPU 0 instructions: 110000002 cycles: 135978711 heartbeat IPC: 0.362508 cumulative IPC: 0.558796 (Simulation time: 0 hr 8 min 51 sec) 
Heartbeat CPU 0 instructions: 120000004 cycles: 165394300 heartbeat IPC: 0.339956 cumulative IPC: 0.51718 (Simulation time: 0 hr 10 min 19 sec) 
Heartbeat CPU 0 instructions: 130000001 cycles: 186836500 heartbeat IPC: 0.46637 cumulative IPC: 0.510994 (Simulation time: 0 hr 11 min 23 sec) 
Heartbeat CPU 0 instructions: 140000002 cycles: 194529587 heartbeat IPC: 1.29987 cumulative IPC: 0.54401 (Simulation time: 0 hr 12 min 10 sec) 
Finished CPU 0 instructions: 100000000 cycles: 183820258 cumulative IPC: 0.54401 (Simulation time: 0 hr 12 min 10 sec) 

ChampSim completed all CPUs

Region of Interest Statistics

CPU 0 cumulative IPC: 0.54401 instructions: 100000000 cycles: 183820258
cpu0_DTLB TOTAL     ACCESS:   20554268  HIT:   20457077  MISS:      97191
cpu0_DTLB LOAD      ACCESS:   18083532  HIT:   17988034  MISS:      95498
cpu0_DTLB RFO       ACCESS:    2470736  HIT:    2469043  MISS:       1693
cpu0_DTLB PREFETCH  ACCESS:          0  HIT:          0  MISS:          0
cpu0_DTLB WRITEBACK ACCESS:          0  HIT:          0  MISS:          0
cpu0_DTLB TRANSLATION ACCESS:          0  HIT:          0  MISS:          0
cpu0_DTLB PREFETCH  REQUESTED:          0  ISSUED:          0  USEFUL:          0  USELESS:          0
cpu0_DTLB AVERAGE MISS LATENCY: 15.3735 cycles
cpu0_DTLB MSHR FULL EVENTS: 4 MSHR MERGE EVENTS: 23220
cpu0_ITLB TOTAL     ACCESS:   10289155  HIT:   10289155  MISS:          0
cpu0_ITLB LOAD      ACCESS:   10289155  HIT:   10289155  MISS:          0
cpu0_ITLB RFO       ACCESS:          0  HIT:          0  MISS:          0
cpu0_ITLB PREFETCH  ACCESS:          0  HIT:          0  MISS:          0
cpu0_ITLB WRITEBACK ACCESS:          0  HIT:          0  MISS:          0
cpu0_ITLB TRANSLATION ACCESS:          0  HIT:          0  MISS:          0
cpu0_ITLB PREFETCH  REQUESTED:          0  ISSUED:          0  USEFUL:          0  USELESS:          0
cpu0_ITLB AVERAGE MISS LATENCY: -nan cycles
cpu0_ITLB MSHR FULL EVENTS: 0 MSHR MERGE EVENTS: 0
cpu0_L1I TOTAL     ACCESS:       1152  HIT:       1137  MISS:         15
cpu0_L1I LOAD      ACCESS:       1152  HIT:       1137  MISS:         15
cpu0_L1I RFO       ACCESS:          0  HIT:          0  MISS:          0
cpu0_L1I PREFETCH  ACCESS:          0  HIT:          0  MISS:          0
cpu0_L1I WRITEBACK ACCESS:          0  HIT:          0  MISS:          0
cpu0_L1I TRANSLATION ACCESS:          0  HIT:          0  MISS:          0
cpu0_L1I PREFETCH  REQUESTED:          0  ISSUED:          0  USEFUL:          0  USELESS:          0
cpu0_L1I AVERAGE MISS LATENCY: 218.467 cycles
cpu0_L1I MSHR FULL EVENTS: 0 MSHR MERGE EVENTS: 0
cpu0_STLB TOTAL     ACCESS:      97191  HIT:      13497  MISS:      83694
cpu0_STLB LOAD      ACCESS:      95498  HIT:      12901  MISS:      82597
cpu0_STLB RFO       ACCESS:       1693  HIT:        596  MISS:       1097
cpu0_STLB PREFETCH  ACCESS:          0  HIT:          0  MISS:          0
cpu0_STLB WRITEBACK ACCESS:          0  HIT:          0  MISS:          0
cpu0_STLB TRANSLATION ACCESS:          0  HIT:          0  MISS:          0
cpu0_STLB PREFETCH  REQUESTED:          0  ISSUED:          0  USEFUL:          0  USELESS:          0
cpu0_STLB AVERAGE MISS LATENCY: 8.40394 cycles
cpu0_STLB MSHR FULL EVENTS: 0 MSHR MERGE EVENTS: 0
cpu0_L1D TOTAL     ACCESS:   16985515  HIT:   14645393  MISS:    2340122
cpu0_L1D LOAD      ACCESS:   14344309  HIT:   12087085  MISS:    2257224
cpu0_L1D RFO       ACCESS:    2557838  HIT:    2476459  MISS:      81379
cpu0_L1D PREFETCH  ACCESS:          0  HIT:          0  MISS:          0
cpu0_L1D WRITEBACK ACCESS:          0  HIT:          0  MISS:          0
cpu0_L1D TRANSLATION ACCESS:      83368  HIT:      81849  MISS:       1519
cpu0_L1D PREFETCH  REQUESTED:          0  ISSUED:          0  USEFUL:          0  USELESS:          0
cpu0_L1D AVERAGE MISS LATENCY: 37.6753 cycles
cpu0_L1D MSHR FULL EVENTS: 25050 MSHR MERGE EVENTS: 575674
cpu0_L2C TOTAL     ACCESS:    2613657  HIT:     895332  MISS:    1718319
cpu0_L2C LOAD      ACCESS:    2257239  HIT:     614404  MISS:    1642835
cpu0_L2C RFO       ACCESS:      81379  HIT:       6001  MISS:      75378
cpu0_L2C PREFETCH  ACCESS:          0  HIT:          0  MISS:          0
cpu0_L2C WRITEBACK ACCESS:     273520  HIT:     273514  MISS:          6
cpu0_L2C TRANSLATION ACCESS:       1519  HIT:       1413  MISS:        106
cpu0_L2C PREFETCH  REQUESTED:          0  ISSUED:          0  USEFUL:          0  USELESS:          0
cpu0_L2C AVERAGE MISS LATENCY: 37.292 cycles
cpu0_L2C MSHR FULL EVENTS: 0 MSHR MERGE EVENTS: 0
LLC TOTAL     ACCESS:    3436644  HIT:    1510325  MISS:     207994
LLC LOAD      ACCESS:    1642835  HIT:    1436644  MISS:     206191
LLC RFO       ACCESS:      75378  HIT:      73577  MISS:       1801
LLC PREFETCH  ACCESS:          0  HIT:          0  MISS:          0
LLC WRITEBACK ACCESS:    1718325  HIT:          0  MISS:    1718325
LLC TRANSLATION ACCESS:        106  HIT:        104  MISS:          2
LLC PREFETCH  REQUESTED:          0  ISSUED:          0  USEFUL:          0  USELESS:          0
LLC AVERAGE MISS LATENCY: 135.594 cycles
LLC MSHR FULL EVENTS: 0 MSHR MERGE EVENTS: 0
blocks bypassed = 0
blocks filled to llc = 0

DRAM Statistics
 CHANNEL 0
 RQ ROW_BUFFER_HIT:      58529  ROW_BUFFER_MISS:     149465
 DBUS AVG_CONGESTED_CYCLE:    3.35606
 WQ ROW_BUFFER_HIT:       4105  ROW_BUFFER_MISS:      16463  FULL:          0


CPU 0 Branch Prediction Accuracy: 83.0199% MPKI: 37.4286 Average ROB Occupancy at Mispredict: 6.73092
Branch type MPKI
BRANCH_DIRECT_JUMP: 5e-05
BRANCH_INDIRECT: 1e-05
BRANCH_CONDITIONAL: 37.4282
BRANCH_DIRECT_CALL: 0.00012
BRANCH_INDIRECT_CALL: 2e-05
BRANCH_RETURN: 0.00012

