
*** ChampSim Multicore Out-of-Order Simulator ***

Warmup Instructions: 40000000
Simulation Instructions: 100000000
Number of CPUs: 1
Off-chip DRAM Size: 4 GiB Channels: 1 Width: 64-bit Data Rate: 3200 MT/s

VirtualMemory physical capacity: 4293914624 num_ppages: 1048319
VirtualMemory page size: 4096 log2_page_size: 12

CPU 0 runs ../../../../ICS/traces//Radii_36000M.champsim.xz
CPU 0 Bimodal branch predictor
Basic BTB sets: 1024 ways: 8 indirect buffer size: 4096 RAS size: 64
Heartbeat CPU 0 instructions: 10000000 cycles: 3369148 heartbeat IPC: 2.96811 cumulative IPC: 2.96811 (Simulation time: 0 hr 0 min 44 sec) 
Heartbeat CPU 0 instructions: 20000002 cycles: 6754470 heartbeat IPC: 2.95393 cumulative IPC: 2.961 (Simulation time: 0 hr 1 min 32 sec) 
Heartbeat CPU 0 instructions: 30000000 cycles: 10167992 heartbeat IPC: 2.92952 cumulative IPC: 2.95044 (Simulation time: 0 hr 2 min 20 sec) 
Heartbeat CPU 0 instructions: 40000000 cycles: 13584254 heartbeat IPC: 2.92718 cumulative IPC: 2.94459 (Simulation time: 0 hr 3 min 4 sec) 

Warmup complete CPU 0 instructions: 40000002 cycles: 13584255 (Simulation time: 0 hr 3 min 4 sec) 

Heartbeat CPU 0 instructions: 50000003 cycles: 47262500 heartbeat IPC: 0.296928 cumulative IPC: 0.296928 (Simulation time: 0 hr 4 min 33 sec) 
Heartbeat CPU 0 instructions: 60000003 cycles: 78687411 heartbeat IPC: 0.318219 cumulative IPC: 0.307205 (Simulation time: 0 hr 5 min 58 sec) 
Heartbeat CPU 0 instructions: 70000003 cycles: 114500331 heartbeat IPC: 0.279229 cumulative IPC: 0.297277 (Simulation time: 0 hr 7 min 24 sec) 
Heartbeat CPU 0 instructions: 80000004 cycles: 153600825 heartbeat IPC: 0.255751 cumulative IPC: 0.28568 (Simulation time: 0 hr 8 min 51 sec) 
Heartbeat CPU 0 instructions: 90000003 cycles: 193647034 heartbeat IPC: 0.249711 cumulative IPC: 0.277681 (Simulation time: 0 hr 10 min 14 sec) 
Heartbeat CPU 0 instructions: 100000004 cycles: 232798164 heartbeat IPC: 0.255421 cumulative IPC: 0.273705 (Simulation time: 0 hr 11 min 44 sec) 
Heartbeat CPU 0 instructions: 110000001 cycles: 272152298 heartbeat IPC: 0.254103 cumulative IPC: 0.270722 (Simulation time: 0 hr 13 min 15 sec) 
Heartbeat CPU 0 instructions: 120000002 cycles: 310360565 heartbeat IPC: 0.261723 cumulative IPC: 0.269563 (Simulation time: 0 hr 14 min 44 sec) 
Heartbeat CPU 0 instructions: 130000001 cycles: 347278797 heartbeat IPC: 0.270869 cumulative IPC: 0.269708 (Simulation time: 0 hr 15 min 50 sec) 
Heartbeat CPU 0 instructions: 140000002 cycles: 359092595 heartbeat IPC: 0.846468 cumulative IPC: 0.289429 (Simulation time: 0 hr 16 min 49 sec) 
Finished CPU 0 instructions: 100000000 cycles: 345508340 cumulative IPC: 0.289429 (Simulation time: 0 hr 16 min 49 sec) 

ChampSim completed all CPUs

Region of Interest Statistics

CPU 0 cumulative IPC: 0.289429 instructions: 100000000 cycles: 345508340
cpu0_DTLB TOTAL     ACCESS:   27851149  HIT:   25142527  MISS:    2708622
cpu0_DTLB LOAD      ACCESS:   23337127  HIT:   20649390  MISS:    2687737
cpu0_DTLB RFO       ACCESS:    4514022  HIT:    4493137  MISS:      20885
cpu0_DTLB PREFETCH  ACCESS:          0  HIT:          0  MISS:          0
cpu0_DTLB WRITEBACK ACCESS:          0  HIT:          0  MISS:          0
cpu0_DTLB TRANSLATION ACCESS:          0  HIT:          0  MISS:          0
cpu0_DTLB PREFETCH  REQUESTED:          0  ISSUED:          0  USEFUL:          0  USELESS:          0
cpu0_DTLB AVERAGE MISS LATENCY: 12.1479 cycles
cpu0_DTLB MSHR FULL EVENTS: 26599 MSHR MERGE EVENTS: 120095
cpu0_ITLB TOTAL     ACCESS:   10152033  HIT:   10152027  MISS:          6
cpu0_ITLB LOAD      ACCESS:   10152033  HIT:   10152027  MISS:          6
cpu0_ITLB RFO       ACCESS:          0  HIT:          0  MISS:          0
cpu0_ITLB PREFETCH  ACCESS:          0  HIT:          0  MISS:          0
cpu0_ITLB WRITEBACK ACCESS:          0  HIT:          0  MISS:          0
cpu0_ITLB TRANSLATION ACCESS:          0  HIT:          0  MISS:          0
cpu0_ITLB PREFETCH  REQUESTED:          0  ISSUED:          0  USEFUL:          0  USELESS:          0
cpu0_ITLB AVERAGE MISS LATENCY: 280 cycles
cpu0_ITLB MSHR FULL EVENTS: 0 MSHR MERGE EVENTS: 0
cpu0_L1I TOTAL     ACCESS:        106  HIT:         55  MISS:         51
cpu0_L1I LOAD      ACCESS:        106  HIT:         55  MISS:         51
cpu0_L1I RFO       ACCESS:          0  HIT:          0  MISS:          0
cpu0_L1I PREFETCH  ACCESS:          0  HIT:          0  MISS:          0
cpu0_L1I WRITEBACK ACCESS:          0  HIT:          0  MISS:          0
cpu0_L1I TRANSLATION ACCESS:          0  HIT:          0  MISS:          0
cpu0_L1I PREFETCH  REQUESTED:          0  ISSUED:          0  USEFUL:          0  USELESS:          0
cpu0_L1I AVERAGE MISS LATENCY: 175.431 cycles
cpu0_L1I MSHR FULL EVENTS: 0 MSHR MERGE EVENTS: 0
cpu0_STLB TOTAL     ACCESS:    2708628  HIT:    2322725  MISS:     385903
cpu0_STLB LOAD      ACCESS:    2687743  HIT:    2305784  MISS:     381959
cpu0_STLB RFO       ACCESS:      20885  HIT:      16941  MISS:       3944
cpu0_STLB PREFETCH  ACCESS:          0  HIT:          0  MISS:          0
cpu0_STLB WRITEBACK ACCESS:          0  HIT:          0  MISS:          0
cpu0_STLB TRANSLATION ACCESS:          0  HIT:          0  MISS:          0
cpu0_STLB PREFETCH  REQUESTED:          0  ISSUED:          0  USEFUL:          0  USELESS:          0
cpu0_STLB AVERAGE MISS LATENCY: 22.4102 cycles
cpu0_STLB MSHR FULL EVENTS: 0 MSHR MERGE EVENTS: 0
cpu0_L1D TOTAL     ACCESS:   26228877  HIT:   21686975  MISS:    4541902
cpu0_L1D LOAD      ACCESS:   20973619  HIT:   16470277  MISS:    4503342
cpu0_L1D RFO       ACCESS:    4880292  HIT:    4852286  MISS:      28006
cpu0_L1D PREFETCH  ACCESS:          0  HIT:          0  MISS:          0
cpu0_L1D WRITEBACK ACCESS:          0  HIT:          0  MISS:          0
cpu0_L1D TRANSLATION ACCESS:     374966  HIT:     364412  MISS:      10554
cpu0_L1D PREFETCH  REQUESTED:          0  ISSUED:          0  USEFUL:          0  USELESS:          0
cpu0_L1D AVERAGE MISS LATENCY: 90.0292 cycles
cpu0_L1D MSHR FULL EVENTS: 39835 MSHR MERGE EVENTS: 1353965
cpu0_L2C TOTAL     ACCESS:    4828167  HIT:     896417  MISS:    3931741
cpu0_L2C LOAD      ACCESS:    4503393  HIT:     599898  MISS:    3903495
cpu0_L2C RFO       ACCESS:      28006  HIT:         11  MISS:      27995
cpu0_L2C PREFETCH  ACCESS:          0  HIT:          0  MISS:          0
cpu0_L2C WRITEBACK ACCESS:     286214  HIT:     286205  MISS:          9
cpu0_L2C TRANSLATION ACCESS:      10554  HIT:      10303  MISS:        251
cpu0_L2C PREFETCH  REQUESTED:          0  ISSUED:          0  USEFUL:          0  USELESS:          0
cpu0_L2C AVERAGE MISS LATENCY: 92.21 cycles
cpu0_L2C MSHR FULL EVENTS: 0 MSHR MERGE EVENTS: 0
LLC TOTAL     ACCESS:    7863488  HIT:    2183217  MISS:    1748524
LLC LOAD      ACCESS:    3903493  HIT:    2182970  MISS:    1720523
LLC RFO       ACCESS:      27995  HIT:          0  MISS:      27995
LLC PREFETCH  ACCESS:          0  HIT:          0  MISS:          0
LLC WRITEBACK ACCESS:    3931749  HIT:          2  MISS:    3931747
LLC TRANSLATION ACCESS:        251  HIT:        245  MISS:          6
LLC PREFETCH  REQUESTED:          0  ISSUED:          0  USEFUL:          0  USELESS:          0
LLC AVERAGE MISS LATENCY: 161.121 cycles
LLC MSHR FULL EVENTS: 0 MSHR MERGE EVENTS: 0
blocks bypassed = 0
blocks filled to llc = 0

DRAM Statistics
 CHANNEL 0
 RQ ROW_BUFFER_HIT:     142425  ROW_BUFFER_MISS:    1606099
 DBUS AVG_CONGESTED_CYCLE:    3.68074
 WQ ROW_BUFFER_HIT:     146109  ROW_BUFFER_MISS:     124375  FULL:          0


CPU 0 Branch Prediction Accuracy: 85.1756% MPKI: 36.0741 Average ROB Occupancy at Mispredict: 25.8135
Branch type MPKI
BRANCH_DIRECT_JUMP: 9e-05
BRANCH_INDIRECT: 0
BRANCH_CONDITIONAL: 36.0739
BRANCH_DIRECT_CALL: 7e-05
BRANCH_INDIRECT_CALL: 0
BRANCH_RETURN: 6e-05

