
*** ChampSim Multicore Out-of-Order Simulator ***

Warmup Instructions: 40000000
Simulation Instructions: 100000000
Number of CPUs: 1
Off-chip DRAM Size: 4 GiB Channels: 1 Width: 64-bit Data Rate: 3200 MT/s

VirtualMemory physical capacity: 4293914624 num_ppages: 1048319
VirtualMemory page size: 4096 log2_page_size: 12

CPU 0 runs ../../../../ICS/traces//bc-5.trace.gz
CPU 0 Bimodal branch predictor
Basic BTB sets: 1024 ways: 8 indirect buffer size: 4096 RAS size: 64
Heartbeat CPU 0 instructions: 10000001 cycles: 3320908 heartbeat IPC: 3.01122 cumulative IPC: 3.01122 (Simulation time: 0 hr 1 min 11 sec) 
Heartbeat CPU 0 instructions: 20000003 cycles: 6147639 heartbeat IPC: 3.53766 cumulative IPC: 3.25328 (Simulation time: 0 hr 2 min 10 sec) 
Heartbeat CPU 0 instructions: 30000001 cycles: 8982826 heartbeat IPC: 3.5271 cumulative IPC: 3.33971 (Simulation time: 0 hr 3 min 6 sec) 
Heartbeat CPU 0 instructions: 40000001 cycles: 11828408 heartbeat IPC: 3.51422 cumulative IPC: 3.38169 (Simulation time: 0 hr 4 min 14 sec) 

Warmup complete CPU 0 instructions: 40000001 cycles: 11828408 (Simulation time: 0 hr 4 min 14 sec) 

Heartbeat CPU 0 instructions: 50000000 cycles: 24588292 heartbeat IPC: 0.783706 cumulative IPC: 0.783706 (Simulation time: 0 hr 5 min 44 sec) 
Heartbeat CPU 0 instructions: 60000000 cycles: 36807521 heartbeat IPC: 0.818382 cumulative IPC: 0.800669 (Simulation time: 0 hr 7 min 3 sec) 
Heartbeat CPU 0 instructions: 70000004 cycles: 49093351 heartbeat IPC: 0.813946 cumulative IPC: 0.805046 (Simulation time: 0 hr 8 min 21 sec) 
Heartbeat CPU 0 instructions: 80000003 cycles: 61020708 heartbeat IPC: 0.838409 cumulative IPC: 0.813135 (Simulation time: 0 hr 9 min 33 sec) 
Heartbeat CPU 0 instructions: 90000000 cycles: 72996637 heartbeat IPC: 0.835008 cumulative IPC: 0.817418 (Simulation time: 0 hr 10 min 56 sec) 
Heartbeat CPU 0 instructions: 100000002 cycles: 84496860 heartbeat IPC: 0.869549 cumulative IPC: 0.825668 (Simulation time: 0 hr 12 min 15 sec) 
Heartbeat CPU 0 instructions: 110000003 cycles: 96353497 heartbeat IPC: 0.84341 cumulative IPC: 0.828157 (Simulation time: 0 hr 13 min 39 sec) 
Heartbeat CPU 0 instructions: 120000003 cycles: 108149529 heartbeat IPC: 0.847743 cumulative IPC: 0.830555 (Simulation time: 0 hr 15 min 4 sec) 
Heartbeat CPU 0 instructions: 130000004 cycles: 119934917 heartbeat IPC: 0.848508 cumulative IPC: 0.832512 (Simulation time: 0 hr 16 min 23 sec) 
Heartbeat CPU 0 instructions: 140000003 cycles: 132106468 heartbeat IPC: 0.821588 cumulative IPC: 0.831407 (Simulation time: 0 hr 17 min 13 sec) 
Finished CPU 0 instructions: 100000002 cycles: 120278060 cumulative IPC: 0.831407 (Simulation time: 0 hr 17 min 13 sec) 

ChampSim completed all CPUs

Region of Interest Statistics

CPU 0 cumulative IPC: 0.831407 instructions: 100000002 cycles: 120278060
cpu0_DTLB TOTAL     ACCESS:   23145136  HIT:   20617008  MISS:    2528128
cpu0_DTLB LOAD      ACCESS:   17852776  HIT:   16122250  MISS:    1730526
cpu0_DTLB RFO       ACCESS:    5292360  HIT:    4494758  MISS:     797602
cpu0_DTLB PREFETCH  ACCESS:          0  HIT:          0  MISS:          0
cpu0_DTLB WRITEBACK ACCESS:          0  HIT:          0  MISS:          0
cpu0_DTLB TRANSLATION ACCESS:          0  HIT:          0  MISS:          0
cpu0_DTLB PREFETCH  REQUESTED:          0  ISSUED:          0  USEFUL:          0  USELESS:          0
cpu0_DTLB AVERAGE MISS LATENCY: 13.6882 cycles
cpu0_DTLB MSHR FULL EVENTS: 153985 MSHR MERGE EVENTS: 988208
cpu0_ITLB TOTAL     ACCESS:    8695398  HIT:    8695398  MISS:          0
cpu0_ITLB LOAD      ACCESS:    8695398  HIT:    8695398  MISS:          0
cpu0_ITLB RFO       ACCESS:          0  HIT:          0  MISS:          0
cpu0_ITLB PREFETCH  ACCESS:          0  HIT:          0  MISS:          0
cpu0_ITLB WRITEBACK ACCESS:          0  HIT:          0  MISS:          0
cpu0_ITLB TRANSLATION ACCESS:          0  HIT:          0  MISS:          0
cpu0_ITLB PREFETCH  REQUESTED:          0  ISSUED:          0  USEFUL:          0  USELESS:          0
cpu0_ITLB AVERAGE MISS LATENCY: -nan cycles
cpu0_ITLB MSHR FULL EVENTS: 0 MSHR MERGE EVENTS: 0
cpu0_L1I TOTAL     ACCESS:        222  HIT:        222  MISS:          0
cpu0_L1I LOAD      ACCESS:        222  HIT:        222  MISS:          0
cpu0_L1I RFO       ACCESS:          0  HIT:          0  MISS:          0
cpu0_L1I PREFETCH  ACCESS:          0  HIT:          0  MISS:          0
cpu0_L1I WRITEBACK ACCESS:          0  HIT:          0  MISS:          0
cpu0_L1I TRANSLATION ACCESS:          0  HIT:          0  MISS:          0
cpu0_L1I PREFETCH  REQUESTED:          0  ISSUED:          0  USEFUL:          0  USELESS:          0
cpu0_L1I AVERAGE MISS LATENCY: -nan cycles
cpu0_L1I MSHR FULL EVENTS: 0 MSHR MERGE EVENTS: 0
cpu0_STLB TOTAL     ACCESS:    2528128  HIT:    1140062  MISS:    1388066
cpu0_STLB LOAD      ACCESS:    1730526  HIT:     835647  MISS:     894879
cpu0_STLB RFO       ACCESS:     797602  HIT:     304415  MISS:     493187
cpu0_STLB PREFETCH  ACCESS:          0  HIT:          0  MISS:          0
cpu0_STLB WRITEBACK ACCESS:          0  HIT:          0  MISS:          0
cpu0_STLB TRANSLATION ACCESS:          0  HIT:          0  MISS:          0
cpu0_STLB PREFETCH  REQUESTED:          0  ISSUED:          0  USEFUL:          0  USELESS:          0
cpu0_STLB AVERAGE MISS LATENCY: 9.38236 cycles
cpu0_STLB MSHR FULL EVENTS: 0 MSHR MERGE EVENTS: 0
cpu0_L1D TOTAL     ACCESS:   27785098  HIT:   19621093  MISS:    8164005
cpu0_L1D LOAD      ACCESS:   19459802  HIT:   11322484  MISS:    8137318
cpu0_L1D RFO       ACCESS:    7090413  HIT:    7068608  MISS:      21805
cpu0_L1D PREFETCH  ACCESS:          0  HIT:          0  MISS:          0
cpu0_L1D WRITEBACK ACCESS:          0  HIT:          0  MISS:          0
cpu0_L1D TRANSLATION ACCESS:    1234883  HIT:    1230001  MISS:       4882
cpu0_L1D PREFETCH  REQUESTED:          0  ISSUED:          0  USEFUL:          0  USELESS:          0
cpu0_L1D AVERAGE MISS LATENCY: 31.504 cycles
cpu0_L1D MSHR FULL EVENTS: 1166186 MSHR MERGE EVENTS: 935728
cpu0_L2C TOTAL     ACCESS:   11813033  HIT:    5346925  MISS:    6466081
cpu0_L2C LOAD      ACCESS:    8137315  HIT:    1692917  MISS:    6444398
cpu0_L2C RFO       ACCESS:      21805  HIT:        271  MISS:      21534
cpu0_L2C PREFETCH  ACCESS:          0  HIT:          0  MISS:          0
cpu0_L2C WRITEBACK ACCESS:    3649031  HIT:    3649004  MISS:         27
cpu0_L2C TRANSLATION ACCESS:       4882  HIT:       4733  MISS:        149
cpu0_L2C PREFETCH  REQUESTED:          0  ISSUED:          0  USEFUL:          0  USELESS:          0
cpu0_L2C AVERAGE MISS LATENCY: 26.1242 cycles
cpu0_L2C MSHR FULL EVENTS: 0 MSHR MERGE EVENTS: 0
LLC TOTAL     ACCESS:   12932074  HIT:    6156818  MISS:     309259
LLC LOAD      ACCESS:    6444288  HIT:    6145663  MISS:     298625
LLC RFO       ACCESS:      21534  HIT:      10905  MISS:      10629
LLC PREFETCH  ACCESS:          0  HIT:          0  MISS:          0
LLC WRITEBACK ACCESS:    6466103  HIT:        106  MISS:    6465997
LLC TRANSLATION ACCESS:        149  HIT:        144  MISS:          5
LLC PREFETCH  REQUESTED:          0  ISSUED:          0  USEFUL:          0  USELESS:          0
LLC AVERAGE MISS LATENCY: 108.144 cycles
LLC MSHR FULL EVENTS: 0 MSHR MERGE EVENTS: 0
blocks bypassed = 0
blocks filled to llc = 0

DRAM Statistics
 CHANNEL 0
 RQ ROW_BUFFER_HIT:     173405  ROW_BUFFER_MISS:     135854
 DBUS AVG_CONGESTED_CYCLE:     3.9388
 WQ ROW_BUFFER_HIT:      26213  ROW_BUFFER_MISS:      71324  FULL:          0


CPU 0 Branch Prediction Accuracy: 93.1676% MPKI: 9.70134 Average ROB Occupancy at Mispredict: 80.499
Branch type MPKI
BRANCH_DIRECT_JUMP: 0
BRANCH_INDIRECT: 0
BRANCH_CONDITIONAL: 9.70134
BRANCH_DIRECT_CALL: 0
BRANCH_INDIRECT_CALL: 0
BRANCH_RETURN: 0

