
*** ChampSim Multicore Out-of-Order Simulator ***

Warmup Instructions: 40000000
Simulation Instructions: 100000000
Number of CPUs: 1
Off-chip DRAM Size: 4 GiB Channels: 1 Width: 64-bit Data Rate: 3200 MT/s

VirtualMemory physical capacity: 4293914624 num_ppages: 1048319
VirtualMemory page size: 4096 log2_page_size: 12

CPU 0 runs ../../../../ICS/traces//bc-0.trace.gz
CPU 0 Bimodal branch predictor
Basic BTB sets: 1024 ways: 8 indirect buffer size: 4096 RAS size: 64
Heartbeat CPU 0 instructions: 10000002 cycles: 3203384 heartbeat IPC: 3.1217 cumulative IPC: 3.1217 (Simulation time: 0 hr 0 min 53 sec) 
Heartbeat CPU 0 instructions: 20000001 cycles: 5712208 heartbeat IPC: 3.98593 cumulative IPC: 3.50127 (Simulation time: 0 hr 1 min 30 sec) 
Heartbeat CPU 0 instructions: 30000000 cycles: 8214327 heartbeat IPC: 3.99661 cumulative IPC: 3.65216 (Simulation time: 0 hr 2 min 5 sec) 
Heartbeat CPU 0 instructions: 40000003 cycles: 10724415 heartbeat IPC: 3.98393 cumulative IPC: 3.72981 (Simulation time: 0 hr 2 min 40 sec) 

Warmup complete CPU 0 instructions: 40000003 cycles: 10724415 (Simulation time: 0 hr 2 min 40 sec) 

Heartbeat CPU 0 instructions: 50000002 cycles: 36747606 heartbeat IPC: 0.384273 cumulative IPC: 0.384273 (Simulation time: 0 hr 3 min 48 sec) 
Heartbeat CPU 0 instructions: 60000000 cycles: 62926870 heartbeat IPC: 0.381982 cumulative IPC: 0.383124 (Simulation time: 0 hr 5 min 0 sec) 
Heartbeat CPU 0 instructions: 70000003 cycles: 89270953 heartbeat IPC: 0.379592 cumulative IPC: 0.381939 (Simulation time: 0 hr 6 min 10 sec) 
Heartbeat CPU 0 instructions: 80000000 cycles: 115850272 heartbeat IPC: 0.376232 cumulative IPC: 0.380496 (Simulation time: 0 hr 7 min 37 sec) 
Heartbeat CPU 0 instructions: 90000002 cycles: 142308883 heartbeat IPC: 0.377949 cumulative IPC: 0.379984 (Simulation time: 0 hr 9 min 4 sec) 
Heartbeat CPU 0 instructions: 100000002 cycles: 168749676 heartbeat IPC: 0.378203 cumulative IPC: 0.379686 (Simulation time: 0 hr 10 min 36 sec) 
Heartbeat CPU 0 instructions: 110000001 cycles: 195291320 heartbeat IPC: 0.376766 cumulative IPC: 0.379266 (Simulation time: 0 hr 12 min 15 sec) 
Heartbeat CPU 0 instructions: 120000003 cycles: 221973748 heartbeat IPC: 0.374779 cumulative IPC: 0.378699 (Simulation time: 0 hr 13 min 39 sec) 
Heartbeat CPU 0 instructions: 130000002 cycles: 248360319 heartbeat IPC: 0.378981 cumulative IPC: 0.378731 (Simulation time: 0 hr 15 min 2 sec) 
Heartbeat CPU 0 instructions: 140000000 cycles: 274691430 heartbeat IPC: 0.379779 cumulative IPC: 0.378835 (Simulation time: 0 hr 16 min 34 sec) 
Finished CPU 0 instructions: 100000000 cycles: 263967035 cumulative IPC: 0.378835 (Simulation time: 0 hr 16 min 34 sec) 

ChampSim completed all CPUs

Region of Interest Statistics

CPU 0 cumulative IPC: 0.378835 instructions: 100000000 cycles: 263967035
cpu0_DTLB TOTAL     ACCESS:   22678732  HIT:   19191979  MISS:    3486753
cpu0_DTLB LOAD      ACCESS:   18217755  HIT:   15899453  MISS:    2318302
cpu0_DTLB RFO       ACCESS:    4460977  HIT:    3292526  MISS:    1168451
cpu0_DTLB PREFETCH  ACCESS:          0  HIT:          0  MISS:          0
cpu0_DTLB WRITEBACK ACCESS:          0  HIT:          0  MISS:          0
cpu0_DTLB TRANSLATION ACCESS:          0  HIT:          0  MISS:          0
cpu0_DTLB PREFETCH  REQUESTED:          0  ISSUED:          0  USEFUL:          0  USELESS:          0
cpu0_DTLB AVERAGE MISS LATENCY: 12.745 cycles
cpu0_DTLB MSHR FULL EVENTS: 7073 MSHR MERGE EVENTS: 568952
cpu0_ITLB TOTAL     ACCESS:   12571340  HIT:   12571340  MISS:          0
cpu0_ITLB LOAD      ACCESS:   12571340  HIT:   12571340  MISS:          0
cpu0_ITLB RFO       ACCESS:          0  HIT:          0  MISS:          0
cpu0_ITLB PREFETCH  ACCESS:          0  HIT:          0  MISS:          0
cpu0_ITLB WRITEBACK ACCESS:          0  HIT:          0  MISS:          0
cpu0_ITLB TRANSLATION ACCESS:          0  HIT:          0  MISS:          0
cpu0_ITLB PREFETCH  REQUESTED:          0  ISSUED:          0  USEFUL:          0  USELESS:          0
cpu0_ITLB AVERAGE MISS LATENCY: -nan cycles
cpu0_ITLB MSHR FULL EVENTS: 0 MSHR MERGE EVENTS: 0
cpu0_L1I TOTAL     ACCESS:        188  HIT:        188  MISS:          0
cpu0_L1I LOAD      ACCESS:        188  HIT:        188  MISS:          0
cpu0_L1I RFO       ACCESS:          0  HIT:          0  MISS:          0
cpu0_L1I PREFETCH  ACCESS:          0  HIT:          0  MISS:          0
cpu0_L1I WRITEBACK ACCESS:          0  HIT:          0  MISS:          0
cpu0_L1I TRANSLATION ACCESS:          0  HIT:          0  MISS:          0
cpu0_L1I PREFETCH  REQUESTED:          0  ISSUED:          0  USEFUL:          0  USELESS:          0
cpu0_L1I AVERAGE MISS LATENCY: -nan cycles
cpu0_L1I MSHR FULL EVENTS: 0 MSHR MERGE EVENTS: 0
cpu0_STLB TOTAL     ACCESS:    3486753  HIT:    2023746  MISS:    1463007
cpu0_STLB LOAD      ACCESS:    2318302  HIT:    1594050  MISS:     724252
cpu0_STLB RFO       ACCESS:    1168451  HIT:     429696  MISS:     738755
cpu0_STLB PREFETCH  ACCESS:          0  HIT:          0  MISS:          0
cpu0_STLB WRITEBACK ACCESS:          0  HIT:          0  MISS:          0
cpu0_STLB TRANSLATION ACCESS:          0  HIT:          0  MISS:          0
cpu0_STLB PREFETCH  REQUESTED:          0  ISSUED:          0  USEFUL:          0  USELESS:          0
cpu0_STLB AVERAGE MISS LATENCY: 9.72345 cycles
cpu0_STLB MSHR FULL EVENTS: 0 MSHR MERGE EVENTS: 0
cpu0_L1D TOTAL     ACCESS:   26759578  HIT:   18139440  MISS:    8620138
cpu0_L1D LOAD      ACCESS:   20566609  HIT:   11975092  MISS:    8591517
cpu0_L1D RFO       ACCESS:    4774308  HIT:    4751603  MISS:      22705
cpu0_L1D PREFETCH  ACCESS:          0  HIT:          0  MISS:          0
cpu0_L1D WRITEBACK ACCESS:          0  HIT:          0  MISS:          0
cpu0_L1D TRANSLATION ACCESS:    1418661  HIT:    1412745  MISS:       5916
cpu0_L1D PREFETCH  REQUESTED:          0  ISSUED:          0  USEFUL:          0  USELESS:          0
cpu0_L1D AVERAGE MISS LATENCY: 31.321 cycles
cpu0_L1D MSHR FULL EVENTS: 200670 MSHR MERGE EVENTS: 258182
cpu0_L2C TOTAL     ACCESS:   11019402  HIT:    4633226  MISS:    6386134
cpu0_L2C LOAD      ACCESS:    8591517  HIT:    2227939  MISS:    6363578
cpu0_L2C RFO       ACCESS:      22705  HIT:        324  MISS:      22381
cpu0_L2C PREFETCH  ACCESS:          0  HIT:          0  MISS:          0
cpu0_L2C WRITEBACK ACCESS:    2399264  HIT:    2399222  MISS:         42
cpu0_L2C TRANSLATION ACCESS:       5916  HIT:       5741  MISS:        175
cpu0_L2C PREFETCH  REQUESTED:          0  ISSUED:          0  USEFUL:          0  USELESS:          0
cpu0_L2C AVERAGE MISS LATENCY: 28.1501 cycles
cpu0_L2C MSHR FULL EVENTS: 0 MSHR MERGE EVENTS: 0
LLC TOTAL     ACCESS:   12772300  HIT:    5962626  MISS:     423508
LLC LOAD      ACCESS:    6363568  HIT:    5951327  MISS:     412241
LLC RFO       ACCESS:      22381  HIT:      11117  MISS:      11264
LLC PREFETCH  ACCESS:          0  HIT:          0  MISS:          0
LLC WRITEBACK ACCESS:    6386176  HIT:         10  MISS:    6386166
LLC TRANSLATION ACCESS:        175  HIT:        172  MISS:          3
LLC PREFETCH  REQUESTED:          0  ISSUED:          0  USEFUL:          0  USELESS:          0
LLC AVERAGE MISS LATENCY: 108.817 cycles
LLC MSHR FULL EVENTS: 0 MSHR MERGE EVENTS: 0
blocks bypassed = 0
blocks filled to llc = 0

DRAM Statistics
 CHANNEL 0
 RQ ROW_BUFFER_HIT:     232979  ROW_BUFFER_MISS:     190529
 DBUS AVG_CONGESTED_CYCLE:    3.94665
 WQ ROW_BUFFER_HIT:      18945  ROW_BUFFER_MISS:     105473  FULL:          0


CPU 0 Branch Prediction Accuracy: 82.8535% MPKI: 32.8103 Average ROB Occupancy at Mispredict: 19.5051
Branch type MPKI
BRANCH_DIRECT_JUMP: 0
BRANCH_INDIRECT: 0
BRANCH_CONDITIONAL: 32.8103
BRANCH_DIRECT_CALL: 0
BRANCH_INDIRECT_CALL: 0
BRANCH_RETURN: 0

