
*** ChampSim Multicore Out-of-Order Simulator ***

Warmup Instructions: 40000000
Simulation Instructions: 100000000
Number of CPUs: 1
Off-chip DRAM Size: 4 GiB Channels: 1 Width: 64-bit Data Rate: 3200 MT/s

VirtualMemory physical capacity: 4293914624 num_ppages: 1048319
VirtualMemory page size: 4096 log2_page_size: 12

CPU 0 runs ../../../../ICS/traces//pr-3.trace.gz
CPU 0 Bimodal branch predictor
Basic BTB sets: 1024 ways: 8 indirect buffer size: 4096 RAS size: 64
Heartbeat CPU 0 instructions: 10000001 cycles: 2727447 heartbeat IPC: 3.66643 cumulative IPC: 3.66643 (Simulation time: 0 hr 0 min 37 sec) 
Heartbeat CPU 0 instructions: 20000002 cycles: 6428155 heartbeat IPC: 2.70219 cumulative IPC: 3.11131 (Simulation time: 0 hr 1 min 33 sec) 
Heartbeat CPU 0 instructions: 30000002 cycles: 10307706 heartbeat IPC: 2.57762 cumulative IPC: 2.91044 (Simulation time: 0 hr 2 min 34 sec) 
Heartbeat CPU 0 instructions: 40000001 cycles: 14190006 heartbeat IPC: 2.57579 cumulative IPC: 2.81889 (Simulation time: 0 hr 3 min 37 sec) 

Warmup complete CPU 0 instructions: 40000001 cycles: 14190006 (Simulation time: 0 hr 3 min 37 sec) 

Heartbeat CPU 0 instructions: 50000001 cycles: 78434159 heartbeat IPC: 0.155656 cumulative IPC: 0.155656 (Simulation time: 0 hr 11 min 6 sec) 
Heartbeat CPU 0 instructions: 60000004 cycles: 142360683 heartbeat IPC: 0.15643 cumulative IPC: 0.156042 (Simulation time: 0 hr 17 min 13 sec) 
Heartbeat CPU 0 instructions: 70000002 cycles: 206545560 heartbeat IPC: 0.1558 cumulative IPC: 0.155961 (Simulation time: 0 hr 21 min 23 sec) 
Heartbeat CPU 0 instructions: 80000004 cycles: 270769829 heartbeat IPC: 0.155704 cumulative IPC: 0.155897 (Simulation time: 0 hr 25 min 27 sec) 
Heartbeat CPU 0 instructions: 90000001 cycles: 334825064 heartbeat IPC: 0.156115 cumulative IPC: 0.155941 (Simulation time: 0 hr 30 min 29 sec) 
Heartbeat CPU 0 instructions: 100000003 cycles: 399159795 heartbeat IPC: 0.155437 cumulative IPC: 0.155856 (Simulation time: 0 hr 34 min 15 sec) 
Heartbeat CPU 0 instructions: 110000004 cycles: 463347213 heartbeat IPC: 0.155794 cumulative IPC: 0.155847 (Simulation time: 0 hr 38 min 0 sec) 
Heartbeat CPU 0 instructions: 120000002 cycles: 527751660 heartbeat IPC: 0.155269 cumulative IPC: 0.155775 (Simulation time: 0 hr 41 min 45 sec) 
Heartbeat CPU 0 instructions: 130000001 cycles: 591771090 heartbeat IPC: 0.156203 cumulative IPC: 0.155822 (Simulation time: 0 hr 45 min 29 sec) 
Heartbeat CPU 0 instructions: 140000003 cycles: 656010070 heartbeat IPC: 0.155669 cumulative IPC: 0.155807 (Simulation time: 0 hr 50 min 48 sec) 
Finished CPU 0 instructions: 100000002 cycles: 641820064 cumulative IPC: 0.155807 (Simulation time: 0 hr 50 min 48 sec) 

ChampSim completed all CPUs

Region of Interest Statistics

CPU 0 cumulative IPC: 0.155807 instructions: 100000002 cycles: 641820064
cpu0_DTLB TOTAL     ACCESS:   39598641  HIT:   27540807  MISS:   12057834
cpu0_DTLB LOAD      ACCESS:   38414905  HIT:   26367200  MISS:   12047705
cpu0_DTLB RFO       ACCESS:    1183736  HIT:    1173607  MISS:      10129
cpu0_DTLB PREFETCH  ACCESS:          0  HIT:          0  MISS:          0
cpu0_DTLB WRITEBACK ACCESS:          0  HIT:          0  MISS:          0
cpu0_DTLB TRANSLATION ACCESS:          0  HIT:          0  MISS:          0
cpu0_DTLB PREFETCH  REQUESTED:          0  ISSUED:          0  USEFUL:          0  USELESS:          0
cpu0_DTLB AVERAGE MISS LATENCY: 9.3181 cycles
cpu0_DTLB MSHR FULL EVENTS: 0 MSHR MERGE EVENTS: 112763
cpu0_ITLB TOTAL     ACCESS:    2690999  HIT:    2690999  MISS:          0
cpu0_ITLB LOAD      ACCESS:    2690999  HIT:    2690999  MISS:          0
cpu0_ITLB RFO       ACCESS:          0  HIT:          0  MISS:          0
cpu0_ITLB PREFETCH  ACCESS:          0  HIT:          0  MISS:          0
cpu0_ITLB WRITEBACK ACCESS:          0  HIT:          0  MISS:          0
cpu0_ITLB TRANSLATION ACCESS:          0  HIT:          0  MISS:          0
cpu0_ITLB PREFETCH  REQUESTED:          0  ISSUED:          0  USEFUL:          0  USELESS:          0
cpu0_ITLB AVERAGE MISS LATENCY: -nan cycles
cpu0_ITLB MSHR FULL EVENTS: 0 MSHR MERGE EVENTS: 0
cpu0_STLB TOTAL     ACCESS:   12057834  HIT:   12038605  MISS:      19229
cpu0_STLB LOAD      ACCESS:   12047705  HIT:   12028476  MISS:      19229
cpu0_STLB RFO       ACCESS:      10129  HIT:      10129  MISS:          0
cpu0_STLB PREFETCH  ACCESS:          0  HIT:          0  MISS:          0
cpu0_STLB WRITEBACK ACCESS:          0  HIT:          0  MISS:          0
cpu0_STLB TRANSLATION ACCESS:          0  HIT:          0  MISS:          0
cpu0_STLB PREFETCH  REQUESTED:          0  ISSUED:          0  USEFUL:          0  USELESS:          0
cpu0_STLB AVERAGE MISS LATENCY: 200.466 cycles
cpu0_STLB MSHR FULL EVENTS: 0 MSHR MERGE EVENTS: 0
cpu0_L1D TOTAL     ACCESS:   36003393  HIT:   17796336  MISS:   18207057
cpu0_L1D LOAD      ACCESS:   34799120  HIT:   16609370  MISS:   18189750
cpu0_L1D RFO       ACCESS:    1185044  HIT:    1185044  MISS:          0
cpu0_L1D PREFETCH  ACCESS:          0  HIT:          0  MISS:          0
cpu0_L1D WRITEBACK ACCESS:          0  HIT:          0  MISS:          0
cpu0_L1D TRANSLATION ACCESS:      19229  HIT:       1922  MISS:      17307
cpu0_L1D PREFETCH  REQUESTED:          0  ISSUED:          0  USEFUL:          0  USELESS:          0
cpu0_L1D AVERAGE MISS LATENCY: 27.7502 cycles
cpu0_L1D MSHR FULL EVENTS: 39 MSHR MERGE EVENTS: 3341461
cpu0_L2C TOTAL     ACCESS:   18251323  HIT:    8594890  MISS:    9656420
cpu0_L2C LOAD      ACCESS:   18189750  HIT:    8533879  MISS:    9655871
cpu0_L2C RFO       ACCESS:          0  HIT:          0  MISS:          0
cpu0_L2C PREFETCH  ACCESS:          0  HIT:          0  MISS:          0
cpu0_L2C WRITEBACK ACCESS:      44266  HIT:      44253  MISS:         13
cpu0_L2C TRANSLATION ACCESS:      17307  HIT:      16758  MISS:        549
cpu0_L2C PREFETCH  REQUESTED:          0  ISSUED:          0  USEFUL:          0  USELESS:          0
cpu0_L2C AVERAGE MISS LATENCY: 32.5825 cycles
cpu0_L2C MSHR FULL EVENTS: 0 MSHR MERGE EVENTS: 0
LLC TOTAL     ACCESS:   19312840  HIT:    8428271  MISS:    1228148
LLC LOAD      ACCESS:    9655859  HIT:    8427717  MISS:    1228142
LLC RFO       ACCESS:          0  HIT:          0  MISS:          0
LLC PREFETCH  ACCESS:          0  HIT:          0  MISS:          0
LLC WRITEBACK ACCESS:    9656432  HIT:         11  MISS:    9656421
LLC TRANSLATION ACCESS:        549  HIT:        543  MISS:          6
LLC PREFETCH  REQUESTED:          0  ISSUED:          0  USEFUL:          0  USELESS:          0
LLC AVERAGE MISS LATENCY: 92.0651 cycles
LLC MSHR FULL EVENTS: 0 MSHR MERGE EVENTS: 0
blocks bypassed = 0
blocks filled to llc = 0

DRAM Statistics
 CHANNEL 0
 RQ ROW_BUFFER_HIT:     866394  ROW_BUFFER_MISS:     361754
 DBUS AVG_CONGESTED_CYCLE:    3.18717
 WQ ROW_BUFFER_HIT:       5430  ROW_BUFFER_MISS:      28009  FULL:          0


CPU 0 Branch Prediction Accuracy: 95.5965% MPKI: 8.40958 Average ROB Occupancy at Mispredict: 345.941
Branch type MPKI
BRANCH_DIRECT_JUMP: 0
BRANCH_INDIRECT: 0
BRANCH_CONDITIONAL: 8.40958
BRANCH_DIRECT_CALL: 0
BRANCH_INDIRECT_CALL: 0
BRANCH_RETURN: 0

