
*** ChampSim Multicore Out-of-Order Simulator ***

Warmup Instructions: 40000000
Simulation Instructions: 100000000
Number of CPUs: 1
Off-chip DRAM Size: 4 GiB Channels: 1 Width: 64-bit Data Rate: 3200 MT/s

VirtualMemory physical capacity: 4293914624 num_ppages: 1048319
VirtualMemory page size: 4096 log2_page_size: 12

CPU 0 runs ../../../../ICS/traces//Radii_25000M.champsim.xz
CPU 0 Bimodal branch predictor
Basic BTB sets: 1024 ways: 8 indirect buffer size: 4096 RAS size: 64
Heartbeat CPU 0 instructions: 10000000 cycles: 2714989 heartbeat IPC: 3.68326 cumulative IPC: 3.68326 (Simulation time: 0 hr 0 min 51 sec) 
Heartbeat CPU 0 instructions: 20000000 cycles: 5638492 heartbeat IPC: 3.42055 cumulative IPC: 3.54705 (Simulation time: 0 hr 1 min 53 sec) 
Heartbeat CPU 0 instructions: 30000004 cycles: 8596724 heartbeat IPC: 3.3804 cumulative IPC: 3.4897 (Simulation time: 0 hr 2 min 51 sec) 
Heartbeat CPU 0 instructions: 40000002 cycles: 11554678 heartbeat IPC: 3.38071 cumulative IPC: 3.4618 (Simulation time: 0 hr 3 min 35 sec) 

Warmup complete CPU 0 instructions: 40000002 cycles: 11554678 (Simulation time: 0 hr 3 min 35 sec) 

Heartbeat CPU 0 instructions: 50000000 cycles: 51257983 heartbeat IPC: 0.251868 cumulative IPC: 0.251868 (Simulation time: 0 hr 9 min 36 sec) 
Heartbeat CPU 0 instructions: 60000003 cycles: 94403175 heartbeat IPC: 0.231776 cumulative IPC: 0.241405 (Simulation time: 0 hr 12 min 2 sec) 
Heartbeat CPU 0 instructions: 70000003 cycles: 131086029 heartbeat IPC: 0.272607 cumulative IPC: 0.25098 (Simulation time: 0 hr 13 min 56 sec) 
Heartbeat CPU 0 instructions: 80000003 cycles: 158035093 heartbeat IPC: 0.37107 cumulative IPC: 0.273074 (Simulation time: 0 hr 17 min 24 sec) 
Heartbeat CPU 0 instructions: 90000001 cycles: 192822437 heartbeat IPC: 0.287461 cumulative IPC: 0.275835 (Simulation time: 0 hr 18 min 46 sec) 
Heartbeat CPU 0 instructions: 100000004 cycles: 228453772 heartbeat IPC: 0.280652 cumulative IPC: 0.276626 (Simulation time: 0 hr 20 min 9 sec) 
Heartbeat CPU 0 instructions: 110000001 cycles: 252627981 heartbeat IPC: 0.413664 cumulative IPC: 0.290368 (Simulation time: 0 hr 21 min 50 sec) 
Heartbeat CPU 0 instructions: 120000004 cycles: 285761379 heartbeat IPC: 0.30181 cumulative IPC: 0.291751 (Simulation time: 0 hr 22 min 50 sec) 
Heartbeat CPU 0 instructions: 130000003 cycles: 311013696 heartbeat IPC: 0.396003 cumulative IPC: 0.300542 (Simulation time: 0 hr 23 min 42 sec) 
Heartbeat CPU 0 instructions: 140000000 cycles: 340847641 heartbeat IPC: 0.335189 cumulative IPC: 0.303681 (Simulation time: 0 hr 25 min 13 sec) 
Finished CPU 0 instructions: 100000003 cycles: 329292964 cumulative IPC: 0.303681 (Simulation time: 0 hr 25 min 13 sec) 

ChampSim completed all CPUs

Region of Interest Statistics

CPU 0 cumulative IPC: 0.303681 instructions: 100000003 cycles: 329292964
cpu0_DTLB TOTAL     ACCESS:   25189129  HIT:   22399337  MISS:    2789792
cpu0_DTLB LOAD      ACCESS:   18171708  HIT:   15778948  MISS:    2392760
cpu0_DTLB RFO       ACCESS:    7017421  HIT:    6620389  MISS:     397032
cpu0_DTLB PREFETCH  ACCESS:          0  HIT:          0  MISS:          0
cpu0_DTLB WRITEBACK ACCESS:          0  HIT:          0  MISS:          0
cpu0_DTLB TRANSLATION ACCESS:          0  HIT:          0  MISS:          0
cpu0_DTLB PREFETCH  REQUESTED:          0  ISSUED:          0  USEFUL:          0  USELESS:          0
cpu0_DTLB AVERAGE MISS LATENCY: 88.8892 cycles
cpu0_DTLB MSHR FULL EVENTS: 12749776 MSHR MERGE EVENTS: 547241
cpu0_ITLB TOTAL     ACCESS:    8067959  HIT:    8067958  MISS:          1
cpu0_ITLB LOAD      ACCESS:    8067959  HIT:    8067958  MISS:          1
cpu0_ITLB RFO       ACCESS:          0  HIT:          0  MISS:          0
cpu0_ITLB PREFETCH  ACCESS:          0  HIT:          0  MISS:          0
cpu0_ITLB WRITEBACK ACCESS:          0  HIT:          0  MISS:          0
cpu0_ITLB TRANSLATION ACCESS:          0  HIT:          0  MISS:          0
cpu0_ITLB PREFETCH  REQUESTED:          0  ISSUED:          0  USEFUL:          0  USELESS:          0
cpu0_ITLB AVERAGE MISS LATENCY: 247 cycles
cpu0_ITLB MSHR FULL EVENTS: 0 MSHR MERGE EVENTS: 0
cpu0_L1I TOTAL     ACCESS:       1201  HIT:       1172  MISS:         29
cpu0_L1I LOAD      ACCESS:       1201  HIT:       1172  MISS:         29
cpu0_L1I RFO       ACCESS:          0  HIT:          0  MISS:          0
cpu0_L1I PREFETCH  ACCESS:          0  HIT:          0  MISS:          0
cpu0_L1I WRITEBACK ACCESS:          0  HIT:          0  MISS:          0
cpu0_L1I TRANSLATION ACCESS:          0  HIT:          0  MISS:          0
cpu0_L1I PREFETCH  REQUESTED:          0  ISSUED:          0  USEFUL:          0  USELESS:          0
cpu0_L1I AVERAGE MISS LATENCY: 227.793 cycles
cpu0_L1I MSHR FULL EVENTS: 0 MSHR MERGE EVENTS: 0
cpu0_STLB TOTAL     ACCESS:    2789793  HIT:     542855  MISS:    2246938
cpu0_STLB LOAD      ACCESS:    2392761  HIT:     461859  MISS:    1930902
cpu0_STLB RFO       ACCESS:     397032  HIT:      80996  MISS:     316036
cpu0_STLB PREFETCH  ACCESS:          0  HIT:          0  MISS:          0
cpu0_STLB WRITEBACK ACCESS:          0  HIT:          0  MISS:          0
cpu0_STLB TRANSLATION ACCESS:          0  HIT:          0  MISS:          0
cpu0_STLB PREFETCH  REQUESTED:          0  ISSUED:          0  USEFUL:          0  USELESS:          0
cpu0_STLB AVERAGE MISS LATENCY: 100.243 cycles
cpu0_STLB MSHR FULL EVENTS: 0 MSHR MERGE EVENTS: 0
cpu0_L1D TOTAL     ACCESS:   23617564  HIT:   18585076  MISS:    5032488
cpu0_L1D LOAD      ACCESS:   15286995  HIT:   11244961  MISS:    4042034
cpu0_L1D RFO       ACCESS:    6574468  HIT:    5587965  MISS:     986503
cpu0_L1D PREFETCH  ACCESS:          0  HIT:          0  MISS:          0
cpu0_L1D WRITEBACK ACCESS:          0  HIT:          0  MISS:          0
cpu0_L1D TRANSLATION ACCESS:    1756101  HIT:    1752150  MISS:       3951
cpu0_L1D PREFETCH  REQUESTED:          0  ISSUED:          0  USEFUL:          0  USELESS:          0
cpu0_L1D AVERAGE MISS LATENCY: 322.244 cycles
cpu0_L1D MSHR FULL EVENTS: 85926117 MSHR MERGE EVENTS: 4787882
cpu0_L2C TOTAL     ACCESS:    6819491  HIT:    1991661  MISS:    4827819
cpu0_L2C LOAD      ACCESS:    4042063  HIT:     185741  MISS:    3856322
cpu0_L2C RFO       ACCESS:     986500  HIT:      15347  MISS:     971153
cpu0_L2C PREFETCH  ACCESS:          0  HIT:          0  MISS:          0
cpu0_L2C WRITEBACK ACCESS:    1786977  HIT:    1786966  MISS:         11
cpu0_L2C TRANSLATION ACCESS:       3951  HIT:       3607  MISS:        344
cpu0_L2C PREFETCH  REQUESTED:          0  ISSUED:          0  USEFUL:          0  USELESS:          0
cpu0_L2C AVERAGE MISS LATENCY: 325.406 cycles
cpu0_L2C MSHR FULL EVENTS: 0 MSHR MERGE EVENTS: 0
LLC TOTAL     ACCESS:    9655638  HIT:    1960424  MISS:    2867395
LLC LOAD      ACCESS:    3856318  HIT:    1495806  MISS:    2360512
LLC RFO       ACCESS:     971146  HIT:     464329  MISS:     506817
LLC PREFETCH  ACCESS:          0  HIT:          0  MISS:          0
LLC WRITEBACK ACCESS:    4827830  HIT:         11  MISS:    4827819
LLC TRANSLATION ACCESS:        344  HIT:        278  MISS:         66
LLC PREFETCH  REQUESTED:          0  ISSUED:          0  USEFUL:          0  USELESS:          0
LLC AVERAGE MISS LATENCY: 513.524 cycles
LLC MSHR FULL EVENTS: 0 MSHR MERGE EVENTS: 0
blocks bypassed = 0
blocks filled to llc = 0

DRAM Statistics
 CHANNEL 0
 RQ ROW_BUFFER_HIT:      75427  ROW_BUFFER_MISS:    2791469
 DBUS AVG_CONGESTED_CYCLE:    3.94271
 WQ ROW_BUFFER_HIT:      56915  ROW_BUFFER_MISS:     731167  FULL:         86


CPU 0 Branch Prediction Accuracy: 88.5322% MPKI: 18.7745 Average ROB Occupancy at Mispredict: 32.9241
Branch type MPKI
BRANCH_DIRECT_JUMP: 0.0001
BRANCH_INDIRECT: 0
BRANCH_CONDITIONAL: 18.7742
BRANCH_DIRECT_CALL: 9e-05
BRANCH_INDIRECT_CALL: 0
BRANCH_RETURN: 0.00011

