
*** ChampSim Multicore Out-of-Order Simulator ***

Warmup Instructions: 40000000
Simulation Instructions: 100000000
Number of CPUs: 1
Off-chip DRAM Size: 4 GiB Channels: 1 Width: 64-bit Data Rate: 3200 MT/s

VirtualMemory physical capacity: 4293914624 num_ppages: 1048319
VirtualMemory page size: 4096 log2_page_size: 12

CPU 0 runs ../../../../ICS/traces//BFSCC_17000M.champsim.xz
CPU 0 Bimodal branch predictor
Basic BTB sets: 1024 ways: 8 indirect buffer size: 4096 RAS size: 64
Heartbeat CPU 0 instructions: 10000001 cycles: 2700909 heartbeat IPC: 3.70246 cumulative IPC: 3.70246 (Simulation time: 0 hr 0 min 38 sec) 
Heartbeat CPU 0 instructions: 20000000 cycles: 5391224 heartbeat IPC: 3.71704 cumulative IPC: 3.70973 (Simulation time: 0 hr 1 min 15 sec) 
Heartbeat CPU 0 instructions: 30000001 cycles: 8245188 heartbeat IPC: 3.5039 cumulative IPC: 3.63849 (Simulation time: 0 hr 2 min 7 sec) 
Heartbeat CPU 0 instructions: 40000002 cycles: 10991149 heartbeat IPC: 3.64171 cumulative IPC: 3.63929 (Simulation time: 0 hr 2 min 55 sec) 

Warmup complete CPU 0 instructions: 40000002 cycles: 10991149 (Simulation time: 0 hr 2 min 55 sec) 

Heartbeat CPU 0 instructions: 50000004 cycles: 14201020 heartbeat IPC: 3.11539 cumulative IPC: 3.11539 (Simulation time: 0 hr 4 min 6 sec) 
Heartbeat CPU 0 instructions: 60000002 cycles: 18489400 heartbeat IPC: 2.33188 cumulative IPC: 2.66729 (Simulation time: 0 hr 5 min 30 sec) 
Heartbeat CPU 0 instructions: 70000002 cycles: 22823600 heartbeat IPC: 2.30723 cumulative IPC: 2.5354 (Simulation time: 0 hr 6 min 52 sec) 
Heartbeat CPU 0 instructions: 80000004 cycles: 27193743 heartbeat IPC: 2.28826 cumulative IPC: 2.46874 (Simulation time: 0 hr 8 min 8 sec) 
Heartbeat CPU 0 instructions: 90000001 cycles: 32024957 heartbeat IPC: 2.06987 cumulative IPC: 2.37713 (Simulation time: 0 hr 9 min 35 sec) 
Heartbeat CPU 0 instructions: 100000001 cycles: 37473422 heartbeat IPC: 1.83538 cumulative IPC: 2.26567 (Simulation time: 0 hr 11 min 7 sec) 
Heartbeat CPU 0 instructions: 110000001 cycles: 41371555 heartbeat IPC: 2.56533 cumulative IPC: 2.30412 (Simulation time: 0 hr 12 min 19 sec) 
Heartbeat CPU 0 instructions: 120000003 cycles: 46757678 heartbeat IPC: 1.85662 cumulative IPC: 2.23673 (Simulation time: 0 hr 13 min 33 sec) 
Heartbeat CPU 0 instructions: 130000000 cycles: 52519746 heartbeat IPC: 1.73549 cumulative IPC: 2.16718 (Simulation time: 0 hr 14 min 26 sec) 
Heartbeat CPU 0 instructions: 140000000 cycles: 58127645 heartbeat IPC: 1.7832 cumulative IPC: 2.1215 (Simulation time: 0 hr 15 min 17 sec) 
Finished CPU 0 instructions: 100000003 cycles: 47136497 cumulative IPC: 2.1215 (Simulation time: 0 hr 15 min 17 sec) 

ChampSim completed all CPUs

Region of Interest Statistics

CPU 0 cumulative IPC: 2.1215 instructions: 100000003 cycles: 47136497
cpu0_DTLB TOTAL     ACCESS:   24443852  HIT:   24386972  MISS:      56880
cpu0_DTLB LOAD      ACCESS:   13002905  HIT:   12984033  MISS:      18872
cpu0_DTLB RFO       ACCESS:   11440947  HIT:   11402939  MISS:      38008
cpu0_DTLB PREFETCH  ACCESS:          0  HIT:          0  MISS:          0
cpu0_DTLB WRITEBACK ACCESS:          0  HIT:          0  MISS:          0
cpu0_DTLB TRANSLATION ACCESS:          0  HIT:          0  MISS:          0
cpu0_DTLB PREFETCH  REQUESTED:          0  ISSUED:          0  USEFUL:          0  USELESS:          0
cpu0_DTLB AVERAGE MISS LATENCY: 31.0566 cycles
cpu0_DTLB MSHR FULL EVENTS: 26821 MSHR MERGE EVENTS: 153467
cpu0_ITLB TOTAL     ACCESS:    1667221  HIT:    1667221  MISS:          0
cpu0_ITLB LOAD      ACCESS:    1667221  HIT:    1667221  MISS:          0
cpu0_ITLB RFO       ACCESS:          0  HIT:          0  MISS:          0
cpu0_ITLB PREFETCH  ACCESS:          0  HIT:          0  MISS:          0
cpu0_ITLB WRITEBACK ACCESS:          0  HIT:          0  MISS:          0
cpu0_ITLB TRANSLATION ACCESS:          0  HIT:          0  MISS:          0
cpu0_ITLB PREFETCH  REQUESTED:          0  ISSUED:          0  USEFUL:          0  USELESS:          0
cpu0_ITLB AVERAGE MISS LATENCY: -nan cycles
cpu0_ITLB MSHR FULL EVENTS: 0 MSHR MERGE EVENTS: 0
cpu0_L1I TOTAL     ACCESS:        517  HIT:        517  MISS:          0
cpu0_L1I LOAD      ACCESS:        517  HIT:        517  MISS:          0
cpu0_L1I RFO       ACCESS:          0  HIT:          0  MISS:          0
cpu0_L1I PREFETCH  ACCESS:          0  HIT:          0  MISS:          0
cpu0_L1I WRITEBACK ACCESS:          0  HIT:          0  MISS:          0
cpu0_L1I TRANSLATION ACCESS:          0  HIT:          0  MISS:          0
cpu0_L1I PREFETCH  REQUESTED:          0  ISSUED:          0  USEFUL:          0  USELESS:          0
cpu0_L1I AVERAGE MISS LATENCY: -nan cycles
cpu0_L1I MSHR FULL EVENTS: 0 MSHR MERGE EVENTS: 0
cpu0_STLB TOTAL     ACCESS:      56880  HIT:      43176  MISS:      13704
cpu0_STLB LOAD      ACCESS:      18872  HIT:      12320  MISS:       6552
cpu0_STLB RFO       ACCESS:      38008  HIT:      30856  MISS:       7152
cpu0_STLB PREFETCH  ACCESS:          0  HIT:          0  MISS:          0
cpu0_STLB WRITEBACK ACCESS:          0  HIT:          0  MISS:          0
cpu0_STLB TRANSLATION ACCESS:          0  HIT:          0  MISS:          0
cpu0_STLB PREFETCH  REQUESTED:          0  ISSUED:          0  USEFUL:          0  USELESS:          0
cpu0_STLB AVERAGE MISS LATENCY: 92.6998 cycles
cpu0_STLB MSHR FULL EVENTS: 0 MSHR MERGE EVENTS: 0
cpu0_L1D TOTAL     ACCESS:   25110990  HIT:   22587091  MISS:    2523899
cpu0_L1D LOAD      ACCESS:    8534401  HIT:    7135176  MISS:    1399225
cpu0_L1D RFO       ACCESS:   16564743  HIT:   15441401  MISS:    1123342
cpu0_L1D PREFETCH  ACCESS:          0  HIT:          0  MISS:          0
cpu0_L1D WRITEBACK ACCESS:          0  HIT:          0  MISS:          0
cpu0_L1D TRANSLATION ACCESS:      11846  HIT:      10514  MISS:       1332
cpu0_L1D PREFETCH  REQUESTED:          0  ISSUED:          0  USEFUL:          0  USELESS:          0
cpu0_L1D AVERAGE MISS LATENCY: 138.835 cycles
cpu0_L1D MSHR FULL EVENTS: 16015198 MSHR MERGE EVENTS: 5458976
cpu0_L2C TOTAL     ACCESS:    3649444  HIT:    1582841  MISS:    2066574
cpu0_L2C LOAD      ACCESS:    1399204  HIT:     392440  MISS:    1006764
cpu0_L2C RFO       ACCESS:    1123212  HIT:      63465  MISS:    1059747
cpu0_L2C PREFETCH  ACCESS:          0  HIT:          0  MISS:          0
cpu0_L2C WRITEBACK ACCESS:    1125696  HIT:    1125667  MISS:         29
cpu0_L2C TRANSLATION ACCESS:       1332  HIT:       1269  MISS:         63
cpu0_L2C PREFETCH  REQUESTED:          0  ISSUED:          0  USEFUL:          0  USELESS:          0
cpu0_L2C AVERAGE MISS LATENCY: 166.94 cycles
cpu0_L2C MSHR FULL EVENTS: 954661 MSHR MERGE EVENTS: 0
LLC TOTAL     ACCESS:    4133166  HIT:    1602137  MISS:     464431
LLC LOAD      ACCESS:    1006753  HIT:     790780  MISS:     215973
LLC RFO       ACCESS:    1059747  HIT:     811291  MISS:     248456
LLC PREFETCH  ACCESS:          0  HIT:          0  MISS:          0
LLC WRITEBACK ACCESS:    2066603  HIT:          5  MISS:    2066598
LLC TRANSLATION ACCESS:         63  HIT:         61  MISS:          2
LLC PREFETCH  REQUESTED:          0  ISSUED:          0  USEFUL:          0  USELESS:          0
LLC AVERAGE MISS LATENCY: 578.52 cycles
LLC MSHR FULL EVENTS: 0 MSHR MERGE EVENTS: 0
blocks bypassed = 0
blocks filled to llc = 0

DRAM Statistics
 CHANNEL 0
 RQ ROW_BUFFER_HIT:     120637  ROW_BUFFER_MISS:     343794
 DBUS AVG_CONGESTED_CYCLE:    3.96524
 WQ ROW_BUFFER_HIT:      19260  ROW_BUFFER_MISS:     157081  FULL:    1082802


CPU 0 Branch Prediction Accuracy: 98.2862% MPKI: 1.74721 Average ROB Occupancy at Mispredict: 164.707
Branch type MPKI
BRANCH_DIRECT_JUMP: 1e-05
BRANCH_INDIRECT: 0
BRANCH_CONDITIONAL: 1.74717
BRANCH_DIRECT_CALL: 1e-05
BRANCH_INDIRECT_CALL: 0
BRANCH_RETURN: 2e-05

