
*** ChampSim Multicore Out-of-Order Simulator ***

Warmup Instructions: 40000000
Simulation Instructions: 100000000
Number of CPUs: 1
Off-chip DRAM Size: 4 GiB Channels: 1 Width: 64-bit Data Rate: 3200 MT/s

VirtualMemory physical capacity: 4293914624 num_ppages: 1048319
VirtualMemory page size: 4096 log2_page_size: 12

CPU 0 runs ../../../../ICS/traces//CF.184750M.champsimtrace.xz
CPU 0 Bimodal branch predictor
Basic BTB sets: 1024 ways: 8 indirect buffer size: 4096 RAS size: 64
Heartbeat CPU 0 instructions: 10000001 cycles: 2500068 heartbeat IPC: 3.99989 cumulative IPC: 3.99989 (Simulation time: 0 hr 0 min 39 sec) 
Heartbeat CPU 0 instructions: 20000001 cycles: 5000068 heartbeat IPC: 4 cumulative IPC: 3.99995 (Simulation time: 0 hr 1 min 19 sec) 
Heartbeat CPU 0 instructions: 30000001 cycles: 7500068 heartbeat IPC: 4 cumulative IPC: 3.99996 (Simulation time: 0 hr 1 min 57 sec) 
Heartbeat CPU 0 instructions: 40000001 cycles: 10000068 heartbeat IPC: 4 cumulative IPC: 3.99997 (Simulation time: 0 hr 2 min 36 sec) 

Warmup complete CPU 0 instructions: 40000001 cycles: 10000068 (Simulation time: 0 hr 2 min 36 sec) 

Heartbeat CPU 0 instructions: 50000000 cycles: 18158129 heartbeat IPC: 1.22578 cumulative IPC: 1.22578 (Simulation time: 0 hr 4 min 4 sec) 
Heartbeat CPU 0 instructions: 60000003 cycles: 25739586 heartbeat IPC: 1.31901 cumulative IPC: 1.27069 (Simulation time: 0 hr 5 min 16 sec) 
Heartbeat CPU 0 instructions: 70000004 cycles: 34591680 heartbeat IPC: 1.12968 cumulative IPC: 1.21993 (Simulation time: 0 hr 6 min 46 sec) 
Heartbeat CPU 0 instructions: 80000001 cycles: 43265999 heartbeat IPC: 1.15283 cumulative IPC: 1.20243 (Simulation time: 0 hr 8 min 15 sec) 
Heartbeat CPU 0 instructions: 90000001 cycles: 51971436 heartbeat IPC: 1.14871 cumulative IPC: 1.19129 (Simulation time: 0 hr 9 min 38 sec) 
Heartbeat CPU 0 instructions: 100000000 cycles: 60176531 heartbeat IPC: 1.21875 cumulative IPC: 1.19578 (Simulation time: 0 hr 11 min 3 sec) 
Heartbeat CPU 0 instructions: 110000001 cycles: 69181094 heartbeat IPC: 1.11055 cumulative IPC: 1.18281 (Simulation time: 0 hr 12 min 30 sec) 
Heartbeat CPU 0 instructions: 120000000 cycles: 77958968 heartbeat IPC: 1.13923 cumulative IPC: 1.17718 (Simulation time: 0 hr 13 min 53 sec) 
Heartbeat CPU 0 instructions: 130000001 cycles: 86492884 heartbeat IPC: 1.1718 cumulative IPC: 1.17658 (Simulation time: 0 hr 15 min 15 sec) 
Heartbeat CPU 0 instructions: 140000000 cycles: 95824183 heartbeat IPC: 1.07166 cumulative IPC: 1.16517 (Simulation time: 0 hr 16 min 41 sec) 
Finished CPU 0 instructions: 100000004 cycles: 85824116 cumulative IPC: 1.16517 (Simulation time: 0 hr 16 min 41 sec) 

ChampSim completed all CPUs

Region of Interest Statistics

CPU 0 cumulative IPC: 1.16517 instructions: 100000004 cycles: 85824116
cpu0_DTLB TOTAL     ACCESS:   16102561  HIT:   15765583  MISS:     336978
cpu0_DTLB LOAD      ACCESS:   14180720  HIT:   13843747  MISS:     336973
cpu0_DTLB RFO       ACCESS:    1921841  HIT:    1921836  MISS:          5
cpu0_DTLB PREFETCH  ACCESS:          0  HIT:          0  MISS:          0
cpu0_DTLB WRITEBACK ACCESS:          0  HIT:          0  MISS:          0
cpu0_DTLB TRANSLATION ACCESS:          0  HIT:          0  MISS:          0
cpu0_DTLB PREFETCH  REQUESTED:          0  ISSUED:          0  USEFUL:          0  USELESS:          0
cpu0_DTLB AVERAGE MISS LATENCY: 36.8676 cycles
cpu0_DTLB MSHR FULL EVENTS: 0 MSHR MERGE EVENTS: 378474
cpu0_ITLB TOTAL     ACCESS:   10442453  HIT:   10442453  MISS:          0
cpu0_ITLB LOAD      ACCESS:   10442453  HIT:   10442453  MISS:          0
cpu0_ITLB RFO       ACCESS:          0  HIT:          0  MISS:          0
cpu0_ITLB PREFETCH  ACCESS:          0  HIT:          0  MISS:          0
cpu0_ITLB WRITEBACK ACCESS:          0  HIT:          0  MISS:          0
cpu0_ITLB TRANSLATION ACCESS:          0  HIT:          0  MISS:          0
cpu0_ITLB PREFETCH  REQUESTED:          0  ISSUED:          0  USEFUL:          0  USELESS:          0
cpu0_ITLB AVERAGE MISS LATENCY: -nan cycles
cpu0_ITLB MSHR FULL EVENTS: 0 MSHR MERGE EVENTS: 0
cpu0_STLB TOTAL     ACCESS:     336978  HIT:     165670  MISS:     171308
cpu0_STLB LOAD      ACCESS:     336973  HIT:     165668  MISS:     171305
cpu0_STLB RFO       ACCESS:          5  HIT:          2  MISS:          3
cpu0_STLB PREFETCH  ACCESS:          0  HIT:          0  MISS:          0
cpu0_STLB WRITEBACK ACCESS:          0  HIT:          0  MISS:          0
cpu0_STLB TRANSLATION ACCESS:          0  HIT:          0  MISS:          0
cpu0_STLB PREFETCH  REQUESTED:          0  ISSUED:          0  USEFUL:          0  USELESS:          0
cpu0_STLB AVERAGE MISS LATENCY: 55.8292 cycles
cpu0_STLB MSHR FULL EVENTS: 0 MSHR MERGE EVENTS: 0
cpu0_L1D TOTAL     ACCESS:   14031438  HIT:   12923504  MISS:    1107934
cpu0_L1D LOAD      ACCESS:    9257932  HIT:    8157804  MISS:    1100128
cpu0_L1D RFO       ACCESS:    4602210  HIT:    4602210  MISS:          0
cpu0_L1D PREFETCH  ACCESS:          0  HIT:          0  MISS:          0
cpu0_L1D WRITEBACK ACCESS:          0  HIT:          0  MISS:          0
cpu0_L1D TRANSLATION ACCESS:     171296  HIT:     163490  MISS:       7806
cpu0_L1D PREFETCH  REQUESTED:          0  ISSUED:          0  USEFUL:          0  USELESS:          0
cpu0_L1D AVERAGE MISS LATENCY: 166.469 cycles
cpu0_L1D MSHR FULL EVENTS: 0 MSHR MERGE EVENTS: 1591025
cpu0_L2C TOTAL     ACCESS:    1255942  HIT:     233536  MISS:    1022406
cpu0_L2C LOAD      ACCESS:    1100128  HIT:      77950  MISS:    1022178
cpu0_L2C RFO       ACCESS:          0  HIT:          0  MISS:          0
cpu0_L2C PREFETCH  ACCESS:          0  HIT:          0  MISS:          0
cpu0_L2C WRITEBACK ACCESS:     148008  HIT:     148008  MISS:          0
cpu0_L2C TRANSLATION ACCESS:       7806  HIT:       7578  MISS:        228
cpu0_L2C PREFETCH  REQUESTED:          0  ISSUED:          0  USEFUL:          0  USELESS:          0
cpu0_L2C AVERAGE MISS LATENCY: 169.456 cycles
cpu0_L2C MSHR FULL EVENTS: 0 MSHR MERGE EVENTS: 0
LLC TOTAL     ACCESS:    2044811  HIT:     176261  MISS:     846145
LLC LOAD      ACCESS:    1022178  HIT:     176034  MISS:     846144
LLC RFO       ACCESS:          0  HIT:          0  MISS:          0
LLC PREFETCH  ACCESS:          0  HIT:          0  MISS:          0
LLC WRITEBACK ACCESS:    1022405  HIT:          0  MISS:    1022405
LLC TRANSLATION ACCESS:        228  HIT:        227  MISS:          1
LLC PREFETCH  REQUESTED:          0  ISSUED:          0  USEFUL:          0  USELESS:          0
LLC AVERAGE MISS LATENCY: 180.38 cycles
LLC MSHR FULL EVENTS: 0 MSHR MERGE EVENTS: 0
blocks bypassed = 0
blocks filled to llc = 0

DRAM Statistics
 CHANNEL 0
 RQ ROW_BUFFER_HIT:      17566  ROW_BUFFER_MISS:     828579
 DBUS AVG_CONGESTED_CYCLE:    3.79037
 WQ ROW_BUFFER_HIT:      21928  ROW_BUFFER_MISS:      83350  FULL:          0


CPU 0 Branch Prediction Accuracy: 88.9163% MPKI: 15.3833 Average ROB Occupancy at Mispredict: 216.344
Branch type MPKI
BRANCH_DIRECT_JUMP: 0
BRANCH_INDIRECT: 0
BRANCH_CONDITIONAL: 15.3833
BRANCH_DIRECT_CALL: 0
BRANCH_INDIRECT_CALL: 0
BRANCH_RETURN: 0

