
*** ChampSim Multicore Out-of-Order Simulator ***

Warmup Instructions: 40000000
Simulation Instructions: 100000000
Number of CPUs: 1
Off-chip DRAM Size: 4 GiB Channels: 1 Width: 64-bit Data Rate: 3200 MT/s

VirtualMemory physical capacity: 4293914624 num_ppages: 1048319
VirtualMemory page size: 4096 log2_page_size: 12

CPU 0 runs ../../../../ICS/traces//bfs-14.trace.gz
CPU 0 Bimodal branch predictor
Basic BTB sets: 1024 ways: 8 indirect buffer size: 4096 RAS size: 64
Heartbeat CPU 0 instructions: 10000001 cycles: 2500160 heartbeat IPC: 3.99974 cumulative IPC: 3.99974 (Simulation time: 0 hr 0 min 35 sec) 
Heartbeat CPU 0 instructions: 20000000 cycles: 5241283 heartbeat IPC: 3.64814 cumulative IPC: 3.81586 (Simulation time: 0 hr 1 min 24 sec) 
Heartbeat CPU 0 instructions: 30000001 cycles: 7989312 heartbeat IPC: 3.63897 cumulative IPC: 3.75502 (Simulation time: 0 hr 2 min 18 sec) 
Heartbeat CPU 0 instructions: 40000002 cycles: 10709329 heartbeat IPC: 3.67645 cumulative IPC: 3.73506 (Simulation time: 0 hr 3 min 5 sec) 

Warmup complete CPU 0 instructions: 40000002 cycles: 10709329 (Simulation time: 0 hr 3 min 5 sec) 

Heartbeat CPU 0 instructions: 50000002 cycles: 34063306 heartbeat IPC: 0.428193 cumulative IPC: 0.428193 (Simulation time: 0 hr 4 min 14 sec) 
Heartbeat CPU 0 instructions: 60000004 cycles: 52800108 heartbeat IPC: 0.533709 cumulative IPC: 0.475163 (Simulation time: 0 hr 5 min 12 sec) 
Heartbeat CPU 0 instructions: 70000001 cycles: 55318421 heartbeat IPC: 3.97091 cumulative IPC: 0.672509 (Simulation time: 0 hr 5 min 49 sec) 
Heartbeat CPU 0 instructions: 80000001 cycles: 63145803 heartbeat IPC: 1.27757 cumulative IPC: 0.762828 (Simulation time: 0 hr 6 min 30 sec) 
Heartbeat CPU 0 instructions: 90000000 cycles: 77881446 heartbeat IPC: 0.678627 cumulative IPC: 0.744356 (Simulation time: 0 hr 7 min 16 sec) 
Heartbeat CPU 0 instructions: 100000000 cycles: 98372705 heartbeat IPC: 0.488013 cumulative IPC: 0.684436 (Simulation time: 0 hr 8 min 21 sec) 
Heartbeat CPU 0 instructions: 110000002 cycles: 118846629 heartbeat IPC: 0.488426 cumulative IPC: 0.647325 (Simulation time: 0 hr 9 min 24 sec) 
Heartbeat CPU 0 instructions: 120000004 cycles: 141344881 heartbeat IPC: 0.444479 cumulative IPC: 0.612391 (Simulation time: 0 hr 10 min 39 sec) 
Heartbeat CPU 0 instructions: 130000001 cycles: 162571797 heartbeat IPC: 0.4711 cumulative IPC: 0.592641 (Simulation time: 0 hr 11 min 32 sec) 
Heartbeat CPU 0 instructions: 140000002 cycles: 170262666 heartbeat IPC: 1.30024 cumulative IPC: 0.62675 (Simulation time: 0 hr 12 min 18 sec) 
Finished CPU 0 instructions: 100000000 cycles: 159553337 cumulative IPC: 0.62675 (Simulation time: 0 hr 12 min 18 sec) 

ChampSim completed all CPUs

Region of Interest Statistics

CPU 0 cumulative IPC: 0.62675 instructions: 100000000 cycles: 159553337
cpu0_DTLB TOTAL     ACCESS:   20556437  HIT:   20459244  MISS:      97193
cpu0_DTLB LOAD      ACCESS:   18083206  HIT:   17987706  MISS:      95500
cpu0_DTLB RFO       ACCESS:    2473231  HIT:    2471538  MISS:       1693
cpu0_DTLB PREFETCH  ACCESS:          0  HIT:          0  MISS:          0
cpu0_DTLB WRITEBACK ACCESS:          0  HIT:          0  MISS:          0
cpu0_DTLB TRANSLATION ACCESS:          0  HIT:          0  MISS:          0
cpu0_DTLB PREFETCH  REQUESTED:          0  ISSUED:          0  USEFUL:          0  USELESS:          0
cpu0_DTLB AVERAGE MISS LATENCY: 15.365 cycles
cpu0_DTLB MSHR FULL EVENTS: 4 MSHR MERGE EVENTS: 23122
cpu0_ITLB TOTAL     ACCESS:   10289186  HIT:   10289186  MISS:          0
cpu0_ITLB LOAD      ACCESS:   10289186  HIT:   10289186  MISS:          0
cpu0_ITLB RFO       ACCESS:          0  HIT:          0  MISS:          0
cpu0_ITLB PREFETCH  ACCESS:          0  HIT:          0  MISS:          0
cpu0_ITLB WRITEBACK ACCESS:          0  HIT:          0  MISS:          0
cpu0_ITLB TRANSLATION ACCESS:          0  HIT:          0  MISS:          0
cpu0_ITLB PREFETCH  REQUESTED:          0  ISSUED:          0  USEFUL:          0  USELESS:          0
cpu0_ITLB AVERAGE MISS LATENCY: -nan cycles
cpu0_ITLB MSHR FULL EVENTS: 0 MSHR MERGE EVENTS: 0
cpu0_L1I TOTAL     ACCESS:       1152  HIT:       1137  MISS:         15
cpu0_L1I LOAD      ACCESS:       1152  HIT:       1137  MISS:         15
cpu0_L1I RFO       ACCESS:          0  HIT:          0  MISS:          0
cpu0_L1I PREFETCH  ACCESS:          0  HIT:          0  MISS:          0
cpu0_L1I WRITEBACK ACCESS:          0  HIT:          0  MISS:          0
cpu0_L1I TRANSLATION ACCESS:          0  HIT:          0  MISS:          0
cpu0_L1I PREFETCH  REQUESTED:          0  ISSUED:          0  USEFUL:          0  USELESS:          0
cpu0_L1I AVERAGE MISS LATENCY: 199.8 cycles
cpu0_L1I MSHR FULL EVENTS: 0 MSHR MERGE EVENTS: 0
cpu0_STLB TOTAL     ACCESS:      97193  HIT:      13499  MISS:      83694
cpu0_STLB LOAD      ACCESS:      95500  HIT:      12903  MISS:      82597
cpu0_STLB RFO       ACCESS:       1693  HIT:        596  MISS:       1097
cpu0_STLB PREFETCH  ACCESS:          0  HIT:          0  MISS:          0
cpu0_STLB WRITEBACK ACCESS:          0  HIT:          0  MISS:          0
cpu0_STLB TRANSLATION ACCESS:          0  HIT:          0  MISS:          0
cpu0_STLB PREFETCH  REQUESTED:          0  ISSUED:          0  USEFUL:          0  USELESS:          0
cpu0_STLB AVERAGE MISS LATENCY: 8.39425 cycles
cpu0_STLB MSHR FULL EVENTS: 0 MSHR MERGE EVENTS: 0
cpu0_L1D TOTAL     ACCESS:   16987876  HIT:   14647769  MISS:    2340107
cpu0_L1D LOAD      ACCESS:   14344472  HIT:   12087263  MISS:    2257209
cpu0_L1D RFO       ACCESS:    2560036  HIT:    2478657  MISS:      81379
cpu0_L1D PREFETCH  ACCESS:          0  HIT:          0  MISS:          0
cpu0_L1D WRITEBACK ACCESS:          0  HIT:          0  MISS:          0
cpu0_L1D TRANSLATION ACCESS:      83368  HIT:      81849  MISS:       1519
cpu0_L1D PREFETCH  REQUESTED:          0  ISSUED:          0  USEFUL:          0  USELESS:          0
cpu0_L1D AVERAGE MISS LATENCY: 26.3343 cycles
cpu0_L1D MSHR FULL EVENTS: 13892 MSHR MERGE EVENTS: 572226
cpu0_L2C TOTAL     ACCESS:    2613643  HIT:     895318  MISS:    1718319
cpu0_L2C LOAD      ACCESS:    2257224  HIT:     614389  MISS:    1642835
cpu0_L2C RFO       ACCESS:      81379  HIT:       6001  MISS:      75378
cpu0_L2C PREFETCH  ACCESS:          0  HIT:          0  MISS:          0
cpu0_L2C WRITEBACK ACCESS:     273521  HIT:     273515  MISS:          6
cpu0_L2C TRANSLATION ACCESS:       1519  HIT:       1413  MISS:        106
cpu0_L2C PREFETCH  REQUESTED:          0  ISSUED:          0  USEFUL:          0  USELESS:          0
cpu0_L2C AVERAGE MISS LATENCY: 21.8469 cycles
cpu0_L2C MSHR FULL EVENTS: 0 MSHR MERGE EVENTS: 0
LLC TOTAL     ACCESS:    3436644  HIT:    1707821  MISS:      10498
LLC LOAD      ACCESS:    1642835  HIT:    1633238  MISS:       9597
LLC RFO       ACCESS:      75378  HIT:      74477  MISS:        901
LLC PREFETCH  ACCESS:          0  HIT:          0  MISS:          0
LLC WRITEBACK ACCESS:    1718325  HIT:          0  MISS:    1718325
LLC TRANSLATION ACCESS:        106  HIT:        106  MISS:          0
LLC PREFETCH  REQUESTED:          0  ISSUED:          0  USEFUL:          0  USELESS:          0
LLC AVERAGE MISS LATENCY: 139.627 cycles
LLC MSHR FULL EVENTS: 0 MSHR MERGE EVENTS: 0
blocks bypassed = 0
blocks filled to llc = 0

DRAM Statistics
 CHANNEL 0
 RQ ROW_BUFFER_HIT:       3007  ROW_BUFFER_MISS:       7491
 DBUS AVG_CONGESTED_CYCLE:    3.96222
 WQ ROW_BUFFER_HIT:         11  ROW_BUFFER_MISS:        241  FULL:          0


CPU 0 Branch Prediction Accuracy: 83.0199% MPKI: 37.4286 Average ROB Occupancy at Mispredict: 6.72314
Branch type MPKI
BRANCH_DIRECT_JUMP: 5e-05
BRANCH_INDIRECT: 1e-05
BRANCH_CONDITIONAL: 37.4282
BRANCH_DIRECT_CALL: 0.00012
BRANCH_INDIRECT_CALL: 2e-05
BRANCH_RETURN: 0.00012

