
*** ChampSim Multicore Out-of-Order Simulator ***

Warmup Instructions: 40000000
Simulation Instructions: 100000000
Number of CPUs: 1
Off-chip DRAM Size: 4 GiB Channels: 1 Width: 64-bit Data Rate: 3200 MT/s

VirtualMemory physical capacity: 4293914624 num_ppages: 1048319
VirtualMemory page size: 4096 log2_page_size: 12

CPU 0 runs ../../../../ICS/traces//sssp-10.trace.gz
CPU 0 Bimodal branch predictor
Basic BTB sets: 1024 ways: 8 indirect buffer size: 4096 RAS size: 64
Heartbeat CPU 0 instructions: 10000004 cycles: 2972405 heartbeat IPC: 3.36428 cumulative IPC: 3.36428 (Simulation time: 0 hr 0 min 52 sec) 
Heartbeat CPU 0 instructions: 20000004 cycles: 6341589 heartbeat IPC: 2.96808 cumulative IPC: 3.15378 (Simulation time: 0 hr 1 min 43 sec) 
Heartbeat CPU 0 instructions: 30000002 cycles: 9857438 heartbeat IPC: 2.84426 cumulative IPC: 3.04339 (Simulation time: 0 hr 2 min 30 sec) 
Heartbeat CPU 0 instructions: 40000003 cycles: 13458405 heartbeat IPC: 2.77703 cumulative IPC: 2.97212 (Simulation time: 0 hr 3 min 19 sec) 

Warmup complete CPU 0 instructions: 40000003 cycles: 13458405 (Simulation time: 0 hr 3 min 19 sec) 

Heartbeat CPU 0 instructions: 50000004 cycles: 28712566 heartbeat IPC: 0.655559 cumulative IPC: 0.655559 (Simulation time: 0 hr 4 min 13 sec) 
Heartbeat CPU 0 instructions: 60000002 cycles: 42949795 heartbeat IPC: 0.702384 cumulative IPC: 0.678164 (Simulation time: 0 hr 4 min 57 sec) 
Heartbeat CPU 0 instructions: 70000001 cycles: 56351940 heartbeat IPC: 0.746149 cumulative IPC: 0.699406 (Simulation time: 0 hr 5 min 51 sec) 
Heartbeat CPU 0 instructions: 80000002 cycles: 69218688 heartbeat IPC: 0.777197 cumulative IPC: 0.717356 (Simulation time: 0 hr 6 min 48 sec) 
Heartbeat CPU 0 instructions: 90000000 cycles: 82144058 heartbeat IPC: 0.773672 cumulative IPC: 0.727954 (Simulation time: 0 hr 7 min 47 sec) 
Heartbeat CPU 0 instructions: 100000003 cycles: 94002041 heartbeat IPC: 0.843314 cumulative IPC: 0.744938 (Simulation time: 0 hr 8 min 36 sec) 
Heartbeat CPU 0 instructions: 110000001 cycles: 105463281 heartbeat IPC: 0.872506 cumulative IPC: 0.760829 (Simulation time: 0 hr 9 min 31 sec) 
Heartbeat CPU 0 instructions: 120000000 cycles: 116716253 heartbeat IPC: 0.888654 cumulative IPC: 0.774759 (Simulation time: 0 hr 10 min 28 sec) 
Heartbeat CPU 0 instructions: 130000003 cycles: 127480005 heartbeat IPC: 0.929044 cumulative IPC: 0.789324 (Simulation time: 0 hr 11 min 32 sec) 
Heartbeat CPU 0 instructions: 140000001 cycles: 138073005 heartbeat IPC: 0.944019 cumulative IPC: 0.802474 (Simulation time: 0 hr 12 min 17 sec) 
Finished CPU 0 instructions: 100000001 cycles: 124614627 cumulative IPC: 0.802474 (Simulation time: 0 hr 12 min 17 sec) 

ChampSim completed all CPUs

Region of Interest Statistics

CPU 0 cumulative IPC: 0.802474 instructions: 100000001 cycles: 124614627
cpu0_DTLB TOTAL     ACCESS:   24829159  HIT:   22717556  MISS:    2111603
cpu0_DTLB LOAD      ACCESS:   23870505  HIT:   22140826  MISS:    1729679
cpu0_DTLB RFO       ACCESS:     958654  HIT:     576730  MISS:     381924
cpu0_DTLB PREFETCH  ACCESS:          0  HIT:          0  MISS:          0
cpu0_DTLB WRITEBACK ACCESS:          0  HIT:          0  MISS:          0
cpu0_DTLB TRANSLATION ACCESS:          0  HIT:          0  MISS:          0
cpu0_DTLB PREFETCH  REQUESTED:          0  ISSUED:          0  USEFUL:          0  USELESS:          0
cpu0_DTLB AVERAGE MISS LATENCY: 10.693 cycles
cpu0_DTLB MSHR FULL EVENTS: 318 MSHR MERGE EVENTS: 575375
cpu0_ITLB TOTAL     ACCESS:    8827667  HIT:    8827667  MISS:          0
cpu0_ITLB LOAD      ACCESS:    8827667  HIT:    8827667  MISS:          0
cpu0_ITLB RFO       ACCESS:          0  HIT:          0  MISS:          0
cpu0_ITLB PREFETCH  ACCESS:          0  HIT:          0  MISS:          0
cpu0_ITLB WRITEBACK ACCESS:          0  HIT:          0  MISS:          0
cpu0_ITLB TRANSLATION ACCESS:          0  HIT:          0  MISS:          0
cpu0_ITLB PREFETCH  REQUESTED:          0  ISSUED:          0  USEFUL:          0  USELESS:          0
cpu0_ITLB AVERAGE MISS LATENCY: -nan cycles
cpu0_ITLB MSHR FULL EVENTS: 0 MSHR MERGE EVENTS: 0
cpu0_L1I TOTAL     ACCESS:      15438  HIT:      15438  MISS:          0
cpu0_L1I LOAD      ACCESS:      15438  HIT:      15438  MISS:          0
cpu0_L1I RFO       ACCESS:          0  HIT:          0  MISS:          0
cpu0_L1I PREFETCH  ACCESS:          0  HIT:          0  MISS:          0
cpu0_L1I WRITEBACK ACCESS:          0  HIT:          0  MISS:          0
cpu0_L1I TRANSLATION ACCESS:          0  HIT:          0  MISS:          0
cpu0_L1I PREFETCH  REQUESTED:          0  ISSUED:          0  USEFUL:          0  USELESS:          0
cpu0_L1I AVERAGE MISS LATENCY: -nan cycles
cpu0_L1I MSHR FULL EVENTS: 0 MSHR MERGE EVENTS: 0
cpu0_STLB TOTAL     ACCESS:    2111603  HIT:    2084927  MISS:      26676
cpu0_STLB LOAD      ACCESS:    1729679  HIT:    1707395  MISS:      22284
cpu0_STLB RFO       ACCESS:     381924  HIT:     377532  MISS:       4392
cpu0_STLB PREFETCH  ACCESS:          0  HIT:          0  MISS:          0
cpu0_STLB WRITEBACK ACCESS:          0  HIT:          0  MISS:          0
cpu0_STLB TRANSLATION ACCESS:          0  HIT:          0  MISS:          0
cpu0_STLB PREFETCH  REQUESTED:          0  ISSUED:          0  USEFUL:          0  USELESS:          0
cpu0_STLB AVERAGE MISS LATENCY: 125.49 cycles
cpu0_STLB MSHR FULL EVENTS: 0 MSHR MERGE EVENTS: 0
cpu0_L1D TOTAL     ACCESS:   19636529  HIT:   14289192  MISS:    5347337
cpu0_L1D LOAD      ACCESS:   18198384  HIT:   13163650  MISS:    5034734
cpu0_L1D RFO       ACCESS:    1411594  HIT:    1107639  MISS:     303955
cpu0_L1D PREFETCH  ACCESS:          0  HIT:          0  MISS:          0
cpu0_L1D WRITEBACK ACCESS:          0  HIT:          0  MISS:          0
cpu0_L1D TRANSLATION ACCESS:      26551  HIT:      17903  MISS:       8648
cpu0_L1D PREFETCH  REQUESTED:          0  ISSUED:          0  USEFUL:          0  USELESS:          0
cpu0_L1D AVERAGE MISS LATENCY: 33.0137 cycles
cpu0_L1D MSHR FULL EVENTS: 392158 MSHR MERGE EVENTS: 2803960
cpu0_L2C TOTAL     ACCESS:    6234682  HIT:    3050732  MISS:    3183720
cpu0_L2C LOAD      ACCESS:    5034729  HIT:    1927584  MISS:    3107145
cpu0_L2C RFO       ACCESS:     303948  HIT:     229013  MISS:      74935
cpu0_L2C PREFETCH  ACCESS:          0  HIT:          0  MISS:          0
cpu0_L2C WRITEBACK ACCESS:     887357  HIT:     887127  MISS:        230
cpu0_L2C TRANSLATION ACCESS:       8648  HIT:       7008  MISS:       1640
cpu0_L2C PREFETCH  REQUESTED:          0  ISSUED:          0  USEFUL:          0  USELESS:          0
cpu0_L2C AVERAGE MISS LATENCY: 37.5195 cycles
cpu0_L2C MSHR FULL EVENTS: 0 MSHR MERGE EVENTS: 0
LLC TOTAL     ACCESS:    6367631  HIT:    2578193  MISS:     605529
LLC LOAD      ACCESS:    3107106  HIT:    2538935  MISS:     568171
LLC RFO       ACCESS:      74935  HIT:      37577  MISS:      37358
LLC PREFETCH  ACCESS:          0  HIT:          0  MISS:          0
LLC WRITEBACK ACCESS:    3183950  HIT:         41  MISS:    3183909
LLC TRANSLATION ACCESS:       1640  HIT:       1640  MISS:          0
LLC PREFETCH  REQUESTED:          0  ISSUED:          0  USEFUL:          0  USELESS:          0
LLC AVERAGE MISS LATENCY: 87.7889 cycles
LLC MSHR FULL EVENTS: 0 MSHR MERGE EVENTS: 0
blocks bypassed = 0
blocks filled to llc = 0

DRAM Statistics
 CHANNEL 0
 RQ ROW_BUFFER_HIT:     467017  ROW_BUFFER_MISS:     138512
 DBUS AVG_CONGESTED_CYCLE:    3.89932
 WQ ROW_BUFFER_HIT:        373  ROW_BUFFER_MISS:       1259  FULL:          0


CPU 0 Branch Prediction Accuracy: 94.5401% MPKI: 8.09881 Average ROB Occupancy at Mispredict: 83.1103
Branch type MPKI
BRANCH_DIRECT_JUMP: 1e-05
BRANCH_INDIRECT: 0
BRANCH_CONDITIONAL: 8.0988
BRANCH_DIRECT_CALL: 0
BRANCH_INDIRECT_CALL: 0
BRANCH_RETURN: 0

