
*** ChampSim Multicore Out-of-Order Simulator ***

Warmup Instructions: 40000000
Simulation Instructions: 100000000
Number of CPUs: 1
Off-chip DRAM Size: 4 GiB Channels: 1 Width: 64-bit Data Rate: 3200 MT/s

VirtualMemory physical capacity: 4293914624 num_ppages: 1048319
VirtualMemory page size: 4096 log2_page_size: 12

CPU 0 runs ../../../../ICS/traces//sssp-3.trace.gz
CPU 0 Bimodal branch predictor
Basic BTB sets: 1024 ways: 8 indirect buffer size: 4096 RAS size: 64
Heartbeat CPU 0 instructions: 10000002 cycles: 2980178 heartbeat IPC: 3.3555 cumulative IPC: 3.3555 (Simulation time: 0 hr 0 min 55 sec) 
Heartbeat CPU 0 instructions: 20000001 cycles: 6362102 heartbeat IPC: 2.9569 cumulative IPC: 3.14362 (Simulation time: 0 hr 1 min 52 sec) 
Heartbeat CPU 0 instructions: 30000002 cycles: 9909298 heartbeat IPC: 2.81913 cumulative IPC: 3.02746 (Simulation time: 0 hr 2 min 42 sec) 
Heartbeat CPU 0 instructions: 40000001 cycles: 13481115 heartbeat IPC: 2.7997 cumulative IPC: 2.96711 (Simulation time: 0 hr 3 min 39 sec) 

Warmup complete CPU 0 instructions: 40000001 cycles: 13481115 (Simulation time: 0 hr 3 min 39 sec) 

Heartbeat CPU 0 instructions: 50000002 cycles: 29149102 heartbeat IPC: 0.638244 cumulative IPC: 0.638244 (Simulation time: 0 hr 4 min 40 sec) 
Heartbeat CPU 0 instructions: 60000002 cycles: 43636534 heartbeat IPC: 0.690253 cumulative IPC: 0.663231 (Simulation time: 0 hr 5 min 47 sec) 
Heartbeat CPU 0 instructions: 70000003 cycles: 57244021 heartbeat IPC: 0.73489 cumulative IPC: 0.685512 (Simulation time: 0 hr 7 min 5 sec) 
Heartbeat CPU 0 instructions: 80000000 cycles: 70166711 heartbeat IPC: 0.773832 cumulative IPC: 0.705647 (Simulation time: 0 hr 8 min 14 sec) 
Heartbeat CPU 0 instructions: 90000000 cycles: 82728191 heartbeat IPC: 0.796085 cumulative IPC: 0.722052 (Simulation time: 0 hr 9 min 25 sec) 
Heartbeat CPU 0 instructions: 100000000 cycles: 94597587 heartbeat IPC: 0.842503 cumulative IPC: 0.739677 (Simulation time: 0 hr 10 min 37 sec) 
Heartbeat CPU 0 instructions: 110000004 cycles: 106337148 heartbeat IPC: 0.851821 cumulative IPC: 0.753855 (Simulation time: 0 hr 11 min 37 sec) 
Heartbeat CPU 0 instructions: 120000000 cycles: 117491541 heartbeat IPC: 0.896507 cumulative IPC: 0.769154 (Simulation time: 0 hr 12 min 29 sec) 
Heartbeat CPU 0 instructions: 130000002 cycles: 128413367 heartbeat IPC: 0.915598 cumulative IPC: 0.78307 (Simulation time: 0 hr 13 min 16 sec) 
Heartbeat CPU 0 instructions: 140000000 cycles: 138896632 heartbeat IPC: 0.953901 cumulative IPC: 0.79735 (Simulation time: 0 hr 14 min 2 sec) 
Finished CPU 0 instructions: 100000001 cycles: 125415550 cumulative IPC: 0.797349 (Simulation time: 0 hr 14 min 2 sec) 

ChampSim completed all CPUs

Region of Interest Statistics

CPU 0 cumulative IPC: 0.797349 instructions: 100000001 cycles: 125415550
cpu0_DTLB TOTAL     ACCESS:   24571529  HIT:   22647562  MISS:    1923967
cpu0_DTLB LOAD      ACCESS:   23590147  HIT:   22046948  MISS:    1543199
cpu0_DTLB RFO       ACCESS:     981382  HIT:     600614  MISS:     380768
cpu0_DTLB PREFETCH  ACCESS:          0  HIT:          0  MISS:          0
cpu0_DTLB WRITEBACK ACCESS:          0  HIT:          0  MISS:          0
cpu0_DTLB TRANSLATION ACCESS:          0  HIT:          0  MISS:          0
cpu0_DTLB PREFETCH  REQUESTED:          0  ISSUED:          0  USEFUL:          0  USELESS:          0
cpu0_DTLB AVERAGE MISS LATENCY: 10.7695 cycles
cpu0_DTLB MSHR FULL EVENTS: 273 MSHR MERGE EVENTS: 559279
cpu0_ITLB TOTAL     ACCESS:    8852921  HIT:    8852921  MISS:          0
cpu0_ITLB LOAD      ACCESS:    8852921  HIT:    8852921  MISS:          0
cpu0_ITLB RFO       ACCESS:          0  HIT:          0  MISS:          0
cpu0_ITLB PREFETCH  ACCESS:          0  HIT:          0  MISS:          0
cpu0_ITLB WRITEBACK ACCESS:          0  HIT:          0  MISS:          0
cpu0_ITLB TRANSLATION ACCESS:          0  HIT:          0  MISS:          0
cpu0_ITLB PREFETCH  REQUESTED:          0  ISSUED:          0  USEFUL:          0  USELESS:          0
cpu0_ITLB AVERAGE MISS LATENCY: -nan cycles
cpu0_ITLB MSHR FULL EVENTS: 0 MSHR MERGE EVENTS: 0
cpu0_L1I TOTAL     ACCESS:      14767  HIT:      14767  MISS:          0
cpu0_L1I LOAD      ACCESS:      14767  HIT:      14767  MISS:          0
cpu0_L1I RFO       ACCESS:          0  HIT:          0  MISS:          0
cpu0_L1I PREFETCH  ACCESS:          0  HIT:          0  MISS:          0
cpu0_L1I WRITEBACK ACCESS:          0  HIT:          0  MISS:          0
cpu0_L1I TRANSLATION ACCESS:          0  HIT:          0  MISS:          0
cpu0_L1I PREFETCH  REQUESTED:          0  ISSUED:          0  USEFUL:          0  USELESS:          0
cpu0_L1I AVERAGE MISS LATENCY: -nan cycles
cpu0_L1I MSHR FULL EVENTS: 0 MSHR MERGE EVENTS: 0
cpu0_STLB TOTAL     ACCESS:    1923967  HIT:    1898645  MISS:      25322
cpu0_STLB LOAD      ACCESS:    1543199  HIT:    1522211  MISS:      20988
cpu0_STLB RFO       ACCESS:     380768  HIT:     376434  MISS:       4334
cpu0_STLB PREFETCH  ACCESS:          0  HIT:          0  MISS:          0
cpu0_STLB WRITEBACK ACCESS:          0  HIT:          0  MISS:          0
cpu0_STLB TRANSLATION ACCESS:          0  HIT:          0  MISS:          0
cpu0_STLB PREFETCH  REQUESTED:          0  ISSUED:          0  USEFUL:          0  USELESS:          0
cpu0_STLB AVERAGE MISS LATENCY: 126.733 cycles
cpu0_STLB MSHR FULL EVENTS: 0 MSHR MERGE EVENTS: 0
cpu0_L1D TOTAL     ACCESS:   22970447  HIT:   17667908  MISS:    5302539
cpu0_L1D LOAD      ACCESS:   21492782  HIT:   16506822  MISS:    4985960
cpu0_L1D RFO       ACCESS:    1452455  HIT:    1144122  MISS:     308333
cpu0_L1D PREFETCH  ACCESS:          0  HIT:          0  MISS:          0
cpu0_L1D WRITEBACK ACCESS:          0  HIT:          0  MISS:          0
cpu0_L1D TRANSLATION ACCESS:      25210  HIT:      16964  MISS:       8246
cpu0_L1D PREFETCH  REQUESTED:          0  ISSUED:          0  USEFUL:          0  USELESS:          0
cpu0_L1D AVERAGE MISS LATENCY: 33.3937 cycles
cpu0_L1D MSHR FULL EVENTS: 424278 MSHR MERGE EVENTS: 2682081
cpu0_L2C TOTAL     ACCESS:    6204831  HIT:    2954188  MISS:    3250227
cpu0_L2C LOAD      ACCESS:    4985954  HIT:    1815619  MISS:    3170335
cpu0_L2C RFO       ACCESS:     308323  HIT:     230085  MISS:      78238
cpu0_L2C PREFETCH  ACCESS:          0  HIT:          0  MISS:          0
cpu0_L2C WRITEBACK ACCESS:     902308  HIT:     901892  MISS:        416
cpu0_L2C TRANSLATION ACCESS:       8246  HIT:       6592  MISS:       1654
cpu0_L2C PREFETCH  REQUESTED:          0  ISSUED:          0  USEFUL:          0  USELESS:          0
cpu0_L2C AVERAGE MISS LATENCY: 37.0791 cycles
cpu0_L2C MSHR FULL EVENTS: 0 MSHR MERGE EVENTS: 0
LLC TOTAL     ACCESS:    6500831  HIT:    2645374  MISS:     604848
LLC LOAD      ACCESS:    3170296  HIT:    2605374  MISS:     564922
LLC RFO       ACCESS:      78238  HIT:      38312  MISS:      39926
LLC PREFETCH  ACCESS:          0  HIT:          0  MISS:          0
LLC WRITEBACK ACCESS:    3250643  HIT:         34  MISS:    3250609
LLC TRANSLATION ACCESS:       1654  HIT:       1654  MISS:          0
LLC PREFETCH  REQUESTED:          0  ISSUED:          0  USEFUL:          0  USELESS:          0
LLC AVERAGE MISS LATENCY: 87.3179 cycles
LLC MSHR FULL EVENTS: 0 MSHR MERGE EVENTS: 0
blocks bypassed = 0
blocks filled to llc = 0

DRAM Statistics
 CHANNEL 0
 RQ ROW_BUFFER_HIT:     470125  ROW_BUFFER_MISS:     134723
 DBUS AVG_CONGESTED_CYCLE:    3.89137
 WQ ROW_BUFFER_HIT:        375  ROW_BUFFER_MISS:       1219  FULL:          0


CPU 0 Branch Prediction Accuracy: 94.4267% MPKI: 8.26397 Average ROB Occupancy at Mispredict: 81.5485
Branch type MPKI
BRANCH_DIRECT_JUMP: 1e-05
BRANCH_INDIRECT: 0
BRANCH_CONDITIONAL: 8.26396
BRANCH_DIRECT_CALL: 0
BRANCH_INDIRECT_CALL: 0
BRANCH_RETURN: 0

