
*** ChampSim Multicore Out-of-Order Simulator ***

Warmup Instructions: 40000000
Simulation Instructions: 100000000
Number of CPUs: 1
Off-chip DRAM Size: 4 GiB Channels: 1 Width: 64-bit Data Rate: 3200 MT/s

VirtualMemory physical capacity: 4293914624 num_ppages: 1048319
VirtualMemory page size: 4096 log2_page_size: 12

CPU 0 runs ../../../../ICS/traces//bfs-8.trace.gz
CPU 0 Bimodal branch predictor
Basic BTB sets: 1024 ways: 8 indirect buffer size: 4096 RAS size: 64
Heartbeat CPU 0 instructions: 10000003 cycles: 2500169 heartbeat IPC: 3.99973 cumulative IPC: 3.99973 (Simulation time: 0 hr 0 min 28 sec) 
Heartbeat CPU 0 instructions: 20000003 cycles: 5242669 heartbeat IPC: 3.64631 cumulative IPC: 3.81485 (Simulation time: 0 hr 1 min 4 sec) 
Heartbeat CPU 0 instructions: 30000000 cycles: 8057628 heartbeat IPC: 3.55245 cumulative IPC: 3.72318 (Simulation time: 0 hr 1 min 39 sec) 
Heartbeat CPU 0 instructions: 40000002 cycles: 10760739 heartbeat IPC: 3.69944 cumulative IPC: 3.71722 (Simulation time: 0 hr 2 min 16 sec) 

Warmup complete CPU 0 instructions: 40000002 cycles: 10760739 (Simulation time: 0 hr 2 min 16 sec) 

Heartbeat CPU 0 instructions: 50000001 cycles: 26653077 heartbeat IPC: 0.629234 cumulative IPC: 0.629234 (Simulation time: 0 hr 2 min 53 sec) 
Heartbeat CPU 0 instructions: 60000000 cycles: 31761547 heartbeat IPC: 1.95753 cumulative IPC: 0.952344 (Simulation time: 0 hr 3 min 22 sec) 
Heartbeat CPU 0 instructions: 70000000 cycles: 40818283 heartbeat IPC: 1.10415 cumulative IPC: 0.998085 (Simulation time: 0 hr 4 min 0 sec) 
Heartbeat CPU 0 instructions: 80000000 cycles: 56596094 heartbeat IPC: 0.633801 cumulative IPC: 0.872689 (Simulation time: 0 hr 4 min 31 sec) 
Heartbeat CPU 0 instructions: 90000001 cycles: 77867146 heartbeat IPC: 0.470123 cumulative IPC: 0.745085 (Simulation time: 0 hr 5 min 22 sec) 
Heartbeat CPU 0 instructions: 100000000 cycles: 99161418 heartbeat IPC: 0.46961 cumulative IPC: 0.678728 (Simulation time: 0 hr 6 min 3 sec) 
Heartbeat CPU 0 instructions: 110000002 cycles: 121955452 heartbeat IPC: 0.438711 cumulative IPC: 0.629526 (Simulation time: 0 hr 6 min 44 sec) 
Heartbeat CPU 0 instructions: 120000002 cycles: 142745752 heartbeat IPC: 0.480994 cumulative IPC: 0.606129 (Simulation time: 0 hr 7 min 27 sec) 
Heartbeat CPU 0 instructions: 130000001 cycles: 148062615 heartbeat IPC: 1.88081 cumulative IPC: 0.65549 (Simulation time: 0 hr 7 min 57 sec) 
Heartbeat CPU 0 instructions: 140000003 cycles: 153166216 heartbeat IPC: 1.9594 cumulative IPC: 0.70222 (Simulation time: 0 hr 8 min 25 sec) 
Finished CPU 0 instructions: 100000001 cycles: 142405477 cumulative IPC: 0.70222 (Simulation time: 0 hr 8 min 25 sec) 

ChampSim completed all CPUs

Region of Interest Statistics

CPU 0 cumulative IPC: 0.70222 instructions: 100000001 cycles: 142405477
cpu0_DTLB TOTAL     ACCESS:   20054554  HIT:   19897765  MISS:     156789
cpu0_DTLB LOAD      ACCESS:   17484277  HIT:   17330730  MISS:     153547
cpu0_DTLB RFO       ACCESS:    2570277  HIT:    2567035  MISS:       3242
cpu0_DTLB PREFETCH  ACCESS:          0  HIT:          0  MISS:          0
cpu0_DTLB WRITEBACK ACCESS:          0  HIT:          0  MISS:          0
cpu0_DTLB TRANSLATION ACCESS:          0  HIT:          0  MISS:          0
cpu0_DTLB PREFETCH  REQUESTED:          0  ISSUED:          0  USEFUL:          0  USELESS:          0
cpu0_DTLB AVERAGE MISS LATENCY: 13.7441 cycles
cpu0_DTLB MSHR FULL EVENTS: 68 MSHR MERGE EVENTS: 35241
cpu0_ITLB TOTAL     ACCESS:   10999951  HIT:   10999951  MISS:          0
cpu0_ITLB LOAD      ACCESS:   10999951  HIT:   10999951  MISS:          0
cpu0_ITLB RFO       ACCESS:          0  HIT:          0  MISS:          0
cpu0_ITLB PREFETCH  ACCESS:          0  HIT:          0  MISS:          0
cpu0_ITLB WRITEBACK ACCESS:          0  HIT:          0  MISS:          0
cpu0_ITLB TRANSLATION ACCESS:          0  HIT:          0  MISS:          0
cpu0_ITLB PREFETCH  REQUESTED:          0  ISSUED:          0  USEFUL:          0  USELESS:          0
cpu0_ITLB AVERAGE MISS LATENCY: -nan cycles
cpu0_ITLB MSHR FULL EVENTS: 0 MSHR MERGE EVENTS: 0
cpu0_L1I TOTAL     ACCESS:       1764  HIT:       1749  MISS:         15
cpu0_L1I LOAD      ACCESS:       1764  HIT:       1749  MISS:         15
cpu0_L1I RFO       ACCESS:          0  HIT:          0  MISS:          0
cpu0_L1I PREFETCH  ACCESS:          0  HIT:          0  MISS:          0
cpu0_L1I WRITEBACK ACCESS:          0  HIT:          0  MISS:          0
cpu0_L1I TRANSLATION ACCESS:          0  HIT:          0  MISS:          0
cpu0_L1I PREFETCH  REQUESTED:          0  ISSUED:          0  USEFUL:          0  USELESS:          0
cpu0_L1I AVERAGE MISS LATENCY: 186.533 cycles
cpu0_L1I MSHR FULL EVENTS: 0 MSHR MERGE EVENTS: 1
cpu0_STLB TOTAL     ACCESS:     156789  HIT:      57531  MISS:      99258
cpu0_STLB LOAD      ACCESS:     153547  HIT:      55402  MISS:      98145
cpu0_STLB RFO       ACCESS:       3242  HIT:       2129  MISS:       1113
cpu0_STLB PREFETCH  ACCESS:          0  HIT:          0  MISS:          0
cpu0_STLB WRITEBACK ACCESS:          0  HIT:          0  MISS:          0
cpu0_STLB TRANSLATION ACCESS:          0  HIT:          0  MISS:          0
cpu0_STLB PREFETCH  REQUESTED:          0  ISSUED:          0  USEFUL:          0  USELESS:          0
cpu0_STLB AVERAGE MISS LATENCY: 8.46761 cycles
cpu0_STLB MSHR FULL EVENTS: 0 MSHR MERGE EVENTS: 0
cpu0_L1D TOTAL     ACCESS:   15379626  HIT:   13170849  MISS:    2208777
cpu0_L1D LOAD      ACCESS:   12602595  HIT:   10490323  MISS:    2112272
cpu0_L1D RFO       ACCESS:    2680535  HIT:    2585446  MISS:      95089
cpu0_L1D PREFETCH  ACCESS:          0  HIT:          0  MISS:          0
cpu0_L1D WRITEBACK ACCESS:          0  HIT:          0  MISS:          0
cpu0_L1D TRANSLATION ACCESS:      96496  HIT:      95080  MISS:       1416
cpu0_L1D PREFETCH  REQUESTED:          0  ISSUED:          0  USEFUL:          0  USELESS:          0
cpu0_L1D AVERAGE MISS LATENCY: 27.9923 cycles
cpu0_L1D MSHR FULL EVENTS: 38278 MSHR MERGE EVENTS: 819917
cpu0_L2C TOTAL     ACCESS:    2473111  HIT:     825770  MISS:    1647336
cpu0_L2C LOAD      ACCESS:    2112286  HIT:     554284  MISS:    1558002
cpu0_L2C RFO       ACCESS:      95089  HIT:       5858  MISS:      89231
cpu0_L2C PREFETCH  ACCESS:          0  HIT:          0  MISS:          0
cpu0_L2C WRITEBACK ACCESS:     264320  HIT:     264315  MISS:          5
cpu0_L2C TRANSLATION ACCESS:       1416  HIT:       1313  MISS:        103
cpu0_L2C PREFETCH  REQUESTED:          0  ISSUED:          0  USEFUL:          0  USELESS:          0
cpu0_L2C AVERAGE MISS LATENCY: 23.7377 cycles
cpu0_L2C MSHR FULL EVENTS: 0 MSHR MERGE EVENTS: 0
LLC TOTAL     ACCESS:    3294677  HIT:    1616640  MISS:      30696
LLC LOAD      ACCESS:    1558002  HIT:    1529693  MISS:      28309
LLC RFO       ACCESS:      89231  HIT:      86844  MISS:       2387
LLC PREFETCH  ACCESS:          0  HIT:          0  MISS:          0
LLC WRITEBACK ACCESS:    1647341  HIT:          0  MISS:    1647341
LLC TRANSLATION ACCESS:        103  HIT:        103  MISS:          0
LLC PREFETCH  REQUESTED:          0  ISSUED:          0  USEFUL:          0  USELESS:          0
LLC AVERAGE MISS LATENCY: 147.92 cycles
LLC MSHR FULL EVENTS: 0 MSHR MERGE EVENTS: 0
blocks bypassed = 0
blocks filled to llc = 0

DRAM Statistics
 CHANNEL 0
 RQ ROW_BUFFER_HIT:       6192  ROW_BUFFER_MISS:      24504
 DBUS AVG_CONGESTED_CYCLE:    3.94342
 WQ ROW_BUFFER_HIT:         11  ROW_BUFFER_MISS:         95  FULL:          0


CPU 0 Branch Prediction Accuracy: 85.9714% MPKI: 31.4272 Average ROB Occupancy at Mispredict: 8.80241
Branch type MPKI
BRANCH_DIRECT_JUMP: 5e-05
BRANCH_INDIRECT: 1e-05
BRANCH_CONDITIONAL: 31.4268
BRANCH_DIRECT_CALL: 0.00012
BRANCH_INDIRECT_CALL: 2e-05
BRANCH_RETURN: 0.00012

