
*** ChampSim Multicore Out-of-Order Simulator ***

Warmup Instructions: 40000000
Simulation Instructions: 100000000
Number of CPUs: 1
Off-chip DRAM Size: 4 GiB Channels: 1 Width: 64-bit Data Rate: 3200 MT/s

VirtualMemory physical capacity: 4293914624 num_ppages: 1048319
VirtualMemory page size: 4096 log2_page_size: 12

CPU 0 runs ../../../../ICS/traces//BFSCC_22000M.champsim.xz
CPU 0 Bimodal branch predictor
Basic BTB sets: 1024 ways: 8 indirect buffer size: 4096 RAS size: 64
Heartbeat CPU 0 instructions: 10000004 cycles: 2911402 heartbeat IPC: 3.43477 cumulative IPC: 3.43477 (Simulation time: 0 hr 0 min 57 sec) 
Heartbeat CPU 0 instructions: 20000000 cycles: 5861154 heartbeat IPC: 3.39011 cumulative IPC: 3.4123 (Simulation time: 0 hr 1 min 53 sec) 
Heartbeat CPU 0 instructions: 30000000 cycles: 8722341 heartbeat IPC: 3.49505 cumulative IPC: 3.43944 (Simulation time: 0 hr 2 min 48 sec) 
Heartbeat CPU 0 instructions: 40000000 cycles: 11531423 heartbeat IPC: 3.55988 cumulative IPC: 3.46878 (Simulation time: 0 hr 3 min 44 sec) 

Warmup complete CPU 0 instructions: 40000001 cycles: 11531424 (Simulation time: 0 hr 3 min 44 sec) 

Heartbeat CPU 0 instructions: 50000002 cycles: 30023317 heartbeat IPC: 0.540778 cumulative IPC: 0.540778 (Simulation time: 0 hr 5 min 20 sec) 
Heartbeat CPU 0 instructions: 60000004 cycles: 47729404 heartbeat IPC: 0.564778 cumulative IPC: 0.552517 (Simulation time: 0 hr 6 min 43 sec) 
Heartbeat CPU 0 instructions: 70000003 cycles: 63991481 heartbeat IPC: 0.614928 cumulative IPC: 0.571864 (Simulation time: 0 hr 8 min 11 sec) 
Heartbeat CPU 0 instructions: 80000003 cycles: 75276365 heartbeat IPC: 0.886141 cumulative IPC: 0.627501 (Simulation time: 0 hr 9 min 24 sec) 
Heartbeat CPU 0 instructions: 90000001 cycles: 78781862 heartbeat IPC: 2.85266 cumulative IPC: 0.74349 (Simulation time: 0 hr 10 min 20 sec) 
Heartbeat CPU 0 instructions: 100000003 cycles: 81356972 heartbeat IPC: 3.88333 cumulative IPC: 0.859284 (Simulation time: 0 hr 10 min 59 sec) 
Heartbeat CPU 0 instructions: 110000002 cycles: 83892838 heartbeat IPC: 3.94343 cumulative IPC: 0.967366 (Simulation time: 0 hr 11 min 39 sec) 
Heartbeat CPU 0 instructions: 120000002 cycles: 88518634 heartbeat IPC: 2.16179 cumulative IPC: 1.03913 (Simulation time: 0 hr 12 min 22 sec) 
Heartbeat CPU 0 instructions: 130000000 cycles: 97269570 heartbeat IPC: 1.14273 cumulative IPC: 1.04971 (Simulation time: 0 hr 12 min 57 sec) 
Heartbeat CPU 0 instructions: 140000001 cycles: 103061511 heartbeat IPC: 1.72654 cumulative IPC: 1.09254 (Simulation time: 0 hr 13 min 27 sec) 
Finished CPU 0 instructions: 100000000 cycles: 91530087 cumulative IPC: 1.09254 (Simulation time: 0 hr 13 min 27 sec) 

ChampSim completed all CPUs

Region of Interest Statistics

CPU 0 cumulative IPC: 1.09254 instructions: 100000000 cycles: 91530087
cpu0_DTLB TOTAL     ACCESS:   16083135  HIT:   15322483  MISS:     760652
cpu0_DTLB LOAD      ACCESS:   14498670  HIT:   13739093  MISS:     759577
cpu0_DTLB RFO       ACCESS:    1584465  HIT:    1583390  MISS:       1075
cpu0_DTLB PREFETCH  ACCESS:          0  HIT:          0  MISS:          0
cpu0_DTLB WRITEBACK ACCESS:          0  HIT:          0  MISS:          0
cpu0_DTLB TRANSLATION ACCESS:          0  HIT:          0  MISS:          0
cpu0_DTLB PREFETCH  REQUESTED:          0  ISSUED:          0  USEFUL:          0  USELESS:          0
cpu0_DTLB AVERAGE MISS LATENCY: 11.9063 cycles
cpu0_DTLB MSHR FULL EVENTS: 0 MSHR MERGE EVENTS: 148274
cpu0_ITLB TOTAL     ACCESS:    8744369  HIT:    8744360  MISS:          9
cpu0_ITLB LOAD      ACCESS:    8744369  HIT:    8744360  MISS:          9
cpu0_ITLB RFO       ACCESS:          0  HIT:          0  MISS:          0
cpu0_ITLB PREFETCH  ACCESS:          0  HIT:          0  MISS:          0
cpu0_ITLB WRITEBACK ACCESS:          0  HIT:          0  MISS:          0
cpu0_ITLB TRANSLATION ACCESS:          0  HIT:          0  MISS:          0
cpu0_ITLB PREFETCH  REQUESTED:          0  ISSUED:          0  USEFUL:          0  USELESS:          0
cpu0_ITLB AVERAGE MISS LATENCY: 265.556 cycles
cpu0_ITLB MSHR FULL EVENTS: 0 MSHR MERGE EVENTS: 0
cpu0_L1I TOTAL     ACCESS:        269  HIT:        154  MISS:        115
cpu0_L1I LOAD      ACCESS:        269  HIT:        154  MISS:        115
cpu0_L1I RFO       ACCESS:          0  HIT:          0  MISS:          0
cpu0_L1I PREFETCH  ACCESS:          0  HIT:          0  MISS:          0
cpu0_L1I WRITEBACK ACCESS:          0  HIT:          0  MISS:          0
cpu0_L1I TRANSLATION ACCESS:          0  HIT:          0  MISS:          0
cpu0_L1I PREFETCH  REQUESTED:          0  ISSUED:          0  USEFUL:          0  USELESS:          0
cpu0_L1I AVERAGE MISS LATENCY: 173.374 cycles
cpu0_L1I MSHR FULL EVENTS: 0 MSHR MERGE EVENTS: 1
cpu0_STLB TOTAL     ACCESS:     760661  HIT:     749338  MISS:      11323
cpu0_STLB LOAD      ACCESS:     759586  HIT:     748907  MISS:      10679
cpu0_STLB RFO       ACCESS:       1075  HIT:        431  MISS:        644
cpu0_STLB PREFETCH  ACCESS:          0  HIT:          0  MISS:          0
cpu0_STLB WRITEBACK ACCESS:          0  HIT:          0  MISS:          0
cpu0_STLB TRANSLATION ACCESS:          0  HIT:          0  MISS:          0
cpu0_STLB PREFETCH  REQUESTED:          0  ISSUED:          0  USEFUL:          0  USELESS:          0
cpu0_STLB AVERAGE MISS LATENCY: 195.829 cycles
cpu0_STLB MSHR FULL EVENTS: 0 MSHR MERGE EVENTS: 0
cpu0_L1D TOTAL     ACCESS:    9543974  HIT:    7816337  MISS:    1727637
cpu0_L1D LOAD      ACCESS:    8099746  HIT:    6427398  MISS:    1672348
cpu0_L1D RFO       ACCESS:    1432905  HIT:    1379969  MISS:      52936
cpu0_L1D PREFETCH  ACCESS:          0  HIT:          0  MISS:          0
cpu0_L1D WRITEBACK ACCESS:          0  HIT:          0  MISS:          0
cpu0_L1D TRANSLATION ACCESS:      11323  HIT:       8970  MISS:       2353
cpu0_L1D PREFETCH  REQUESTED:          0  ISSUED:          0  USEFUL:          0  USELESS:          0
cpu0_L1D AVERAGE MISS LATENCY: 84.7526 cycles
cpu0_L1D MSHR FULL EVENTS: 1699 MSHR MERGE EVENTS: 2530744
cpu0_L2C TOTAL     ACCESS:    1796848  HIT:     257052  MISS:    1539796
cpu0_L2C LOAD      ACCESS:    1672463  HIT:     185600  MISS:    1486863
cpu0_L2C RFO       ACCESS:      52936  HIT:         26  MISS:      52910
cpu0_L2C PREFETCH  ACCESS:          0  HIT:          0  MISS:          0
cpu0_L2C WRITEBACK ACCESS:      69096  HIT:      69096  MISS:          0
cpu0_L2C TRANSLATION ACCESS:       2353  HIT:       2330  MISS:         23
cpu0_L2C PREFETCH  REQUESTED:          0  ISSUED:          0  USEFUL:          0  USELESS:          0
cpu0_L2C AVERAGE MISS LATENCY: 83.7499 cycles
cpu0_L2C MSHR FULL EVENTS: 0 MSHR MERGE EVENTS: 0
LLC TOTAL     ACCESS:    3079591  HIT:     864834  MISS:     674962
LLC LOAD      ACCESS:    1486862  HIT:     837207  MISS:     649655
LLC RFO       ACCESS:      52910  HIT:      27607  MISS:      25303
LLC PREFETCH  ACCESS:          0  HIT:          0  MISS:          0
LLC WRITEBACK ACCESS:    1539796  HIT:          1  MISS:    1539795
LLC TRANSLATION ACCESS:         23  HIT:         19  MISS:          4
LLC PREFETCH  REQUESTED:          0  ISSUED:          0  USEFUL:          0  USELESS:          0
LLC AVERAGE MISS LATENCY: 144.144 cycles
LLC MSHR FULL EVENTS: 0 MSHR MERGE EVENTS: 0
blocks bypassed = 0
blocks filled to llc = 0

DRAM Statistics
 CHANNEL 0
 RQ ROW_BUFFER_HIT:     192928  ROW_BUFFER_MISS:     482034
 DBUS AVG_CONGESTED_CYCLE:    3.62149
 WQ ROW_BUFFER_HIT:      10048  ROW_BUFFER_MISS:       5579  FULL:          0


CPU 0 Branch Prediction Accuracy: 94.0529% MPKI: 14.8888 Average ROB Occupancy at Mispredict: 71.3582
Branch type MPKI
BRANCH_DIRECT_JUMP: 0.00024
BRANCH_INDIRECT: 0
BRANCH_CONDITIONAL: 14.8882
BRANCH_DIRECT_CALL: 0.00017
BRANCH_INDIRECT_CALL: 0
BRANCH_RETURN: 0.00017

