
*** ChampSim Multicore Out-of-Order Simulator ***

Warmup Instructions: 40000000
Simulation Instructions: 100000000
Number of CPUs: 1
Off-chip DRAM Size: 4 GiB Channels: 1 Width: 64-bit Data Rate: 3200 MT/s

VirtualMemory physical capacity: 4293914624 num_ppages: 1048319
VirtualMemory page size: 4096 log2_page_size: 12

CPU 0 runs ../../../../ICS/traces//bfs-3.trace.gz
CPU 0 Bimodal branch predictor
Basic BTB sets: 1024 ways: 8 indirect buffer size: 4096 RAS size: 64
Heartbeat CPU 0 instructions: 10000003 cycles: 2500170 heartbeat IPC: 3.99973 cumulative IPC: 3.99973 (Simulation time: 0 hr 0 min 29 sec) 
Heartbeat CPU 0 instructions: 20000000 cycles: 5135342 heartbeat IPC: 3.79482 cumulative IPC: 3.89458 (Simulation time: 0 hr 1 min 5 sec) 
Heartbeat CPU 0 instructions: 30000002 cycles: 7762178 heartbeat IPC: 3.80686 cumulative IPC: 3.86489 (Simulation time: 0 hr 1 min 42 sec) 
Heartbeat CPU 0 instructions: 40000000 cycles: 10388439 heartbeat IPC: 3.80769 cumulative IPC: 3.85043 (Simulation time: 0 hr 2 min 19 sec) 

Warmup complete CPU 0 instructions: 40000005 cycles: 10388440 (Simulation time: 0 hr 2 min 19 sec) 

Heartbeat CPU 0 instructions: 50000000 cycles: 37271815 heartbeat IPC: 0.371977 cumulative IPC: 0.371977 (Simulation time: 0 hr 3 min 17 sec) 
Heartbeat CPU 0 instructions: 60000000 cycles: 59724978 heartbeat IPC: 0.445372 cumulative IPC: 0.405379 (Simulation time: 0 hr 4 min 6 sec) 
Heartbeat CPU 0 instructions: 70000003 cycles: 77090997 heartbeat IPC: 0.575837 cumulative IPC: 0.449758 (Simulation time: 0 hr 4 min 49 sec) 
Heartbeat CPU 0 instructions: 80000001 cycles: 79676791 heartbeat IPC: 3.86728 cumulative IPC: 0.577298 (Simulation time: 0 hr 5 min 18 sec) 
Heartbeat CPU 0 instructions: 90000002 cycles: 88338114 heartbeat IPC: 1.15456 cumulative IPC: 0.641439 (Simulation time: 0 hr 5 min 52 sec) 
Heartbeat CPU 0 instructions: 100000000 cycles: 104946384 heartbeat IPC: 0.60211 cumulative IPC: 0.634531 (Simulation time: 0 hr 6 min 31 sec) 
Heartbeat CPU 0 instructions: 110000002 cycles: 120754558 heartbeat IPC: 0.632584 cumulative IPC: 0.634253 (Simulation time: 0 hr 7 min 20 sec) 
Heartbeat CPU 0 instructions: 120000001 cycles: 138767732 heartbeat IPC: 0.555149 cumulative IPC: 0.623153 (Simulation time: 0 hr 8 min 8 sec) 
Heartbeat CPU 0 instructions: 130000003 cycles: 158630956 heartbeat IPC: 0.503443 cumulative IPC: 0.607113 (Simulation time: 0 hr 8 min 52 sec) 
Heartbeat CPU 0 instructions: 140000000 cycles: 168619783 heartbeat IPC: 1.00112 cumulative IPC: 0.631986 (Simulation time: 0 hr 9 min 23 sec) 
Finished CPU 0 instructions: 100000000 cycles: 158231345 cumulative IPC: 0.631986 (Simulation time: 0 hr 9 min 23 sec) 

ChampSim completed all CPUs

Region of Interest Statistics

CPU 0 cumulative IPC: 0.631986 instructions: 100000000 cycles: 158231345
cpu0_DTLB TOTAL     ACCESS:   20845213  HIT:   20684025  MISS:     161188
cpu0_DTLB LOAD      ACCESS:   17959427  HIT:   17804165  MISS:     155262
cpu0_DTLB RFO       ACCESS:    2885786  HIT:    2879860  MISS:       5926
cpu0_DTLB PREFETCH  ACCESS:          0  HIT:          0  MISS:          0
cpu0_DTLB WRITEBACK ACCESS:          0  HIT:          0  MISS:          0
cpu0_DTLB TRANSLATION ACCESS:          0  HIT:          0  MISS:          0
cpu0_DTLB PREFETCH  REQUESTED:          0  ISSUED:          0  USEFUL:          0  USELESS:          0
cpu0_DTLB AVERAGE MISS LATENCY: 17.7709 cycles
cpu0_DTLB MSHR FULL EVENTS: 943 MSHR MERGE EVENTS: 43192
cpu0_ITLB TOTAL     ACCESS:   10485885  HIT:   10485885  MISS:          0
cpu0_ITLB LOAD      ACCESS:   10485885  HIT:   10485885  MISS:          0
cpu0_ITLB RFO       ACCESS:          0  HIT:          0  MISS:          0
cpu0_ITLB PREFETCH  ACCESS:          0  HIT:          0  MISS:          0
cpu0_ITLB WRITEBACK ACCESS:          0  HIT:          0  MISS:          0
cpu0_ITLB TRANSLATION ACCESS:          0  HIT:          0  MISS:          0
cpu0_ITLB PREFETCH  REQUESTED:          0  ISSUED:          0  USEFUL:          0  USELESS:          0
cpu0_ITLB AVERAGE MISS LATENCY: -nan cycles
cpu0_ITLB MSHR FULL EVENTS: 0 MSHR MERGE EVENTS: 0
cpu0_L1I TOTAL     ACCESS:       1370  HIT:       1353  MISS:         17
cpu0_L1I LOAD      ACCESS:       1370  HIT:       1353  MISS:         17
cpu0_L1I RFO       ACCESS:          0  HIT:          0  MISS:          0
cpu0_L1I PREFETCH  ACCESS:          0  HIT:          0  MISS:          0
cpu0_L1I WRITEBACK ACCESS:          0  HIT:          0  MISS:          0
cpu0_L1I TRANSLATION ACCESS:          0  HIT:          0  MISS:          0
cpu0_L1I PREFETCH  REQUESTED:          0  ISSUED:          0  USEFUL:          0  USELESS:          0
cpu0_L1I AVERAGE MISS LATENCY: 203.294 cycles
cpu0_L1I MSHR FULL EVENTS: 0 MSHR MERGE EVENTS: 0
cpu0_STLB TOTAL     ACCESS:     161188  HIT:      77926  MISS:      83262
cpu0_STLB LOAD      ACCESS:     155262  HIT:      73266  MISS:      81996
cpu0_STLB RFO       ACCESS:       5926  HIT:       4660  MISS:       1266
cpu0_STLB PREFETCH  ACCESS:          0  HIT:          0  MISS:          0
cpu0_STLB WRITEBACK ACCESS:          0  HIT:          0  MISS:          0
cpu0_STLB TRANSLATION ACCESS:          0  HIT:          0  MISS:          0
cpu0_STLB PREFETCH  REQUESTED:          0  ISSUED:          0  USEFUL:          0  USELESS:          0
cpu0_STLB AVERAGE MISS LATENCY: 17.8791 cycles
cpu0_STLB MSHR FULL EVENTS: 0 MSHR MERGE EVENTS: 0
cpu0_L1D TOTAL     ACCESS:   17162276  HIT:   14444230  MISS:    2718046
cpu0_L1D LOAD      ACCESS:   13917996  HIT:   11299574  MISS:    2618422
cpu0_L1D RFO       ACCESS:    3161642  HIT:    3063673  MISS:      97969
cpu0_L1D PREFETCH  ACCESS:          0  HIT:          0  MISS:          0
cpu0_L1D WRITEBACK ACCESS:          0  HIT:          0  MISS:          0
cpu0_L1D TRANSLATION ACCESS:      82638  HIT:      80983  MISS:       1655
cpu0_L1D PREFETCH  REQUESTED:          0  ISSUED:          0  USEFUL:          0  USELESS:          0
cpu0_L1D AVERAGE MISS LATENCY: 28.6072 cycles
cpu0_L1D MSHR FULL EVENTS: 169660 MSHR MERGE EVENTS: 711898
cpu0_L2C TOTAL     ACCESS:    3169788  HIT:    1258380  MISS:    1911393
cpu0_L2C LOAD      ACCESS:    2618428  HIT:     795084  MISS:    1823344
cpu0_L2C RFO       ACCESS:      97969  HIT:      10051  MISS:      87918
cpu0_L2C PREFETCH  ACCESS:          0  HIT:          0  MISS:          0
cpu0_L2C WRITEBACK ACCESS:     451736  HIT:     451721  MISS:         15
cpu0_L2C TRANSLATION ACCESS:       1655  HIT:       1524  MISS:        131
cpu0_L2C PREFETCH  REQUESTED:          0  ISSUED:          0  USEFUL:          0  USELESS:          0
cpu0_L2C AVERAGE MISS LATENCY: 25.9176 cycles
cpu0_L2C MSHR FULL EVENTS: 0 MSHR MERGE EVENTS: 0
LLC TOTAL     ACCESS:    3822798  HIT:    1821470  MISS:      89922
LLC LOAD      ACCESS:    1823342  HIT:    1743914  MISS:      79428
LLC RFO       ACCESS:      87917  HIT:      77424  MISS:      10493
LLC PREFETCH  ACCESS:          0  HIT:          0  MISS:          0
LLC WRITEBACK ACCESS:    1911408  HIT:          2  MISS:    1911406
LLC TRANSLATION ACCESS:        131  HIT:        130  MISS:          1
LLC PREFETCH  REQUESTED:          0  ISSUED:          0  USEFUL:          0  USELESS:          0
LLC AVERAGE MISS LATENCY: 105.529 cycles
LLC MSHR FULL EVENTS: 0 MSHR MERGE EVENTS: 0
blocks bypassed = 0
blocks filled to llc = 0

DRAM Statistics
 CHANNEL 0
 RQ ROW_BUFFER_HIT:      57623  ROW_BUFFER_MISS:      32299
 DBUS AVG_CONGESTED_CYCLE:    3.93323
 WQ ROW_BUFFER_HIT:         31  ROW_BUFFER_MISS:        189  FULL:          0


CPU 0 Branch Prediction Accuracy: 84.0197% MPKI: 33.7857 Average ROB Occupancy at Mispredict: 9.20657
Branch type MPKI
BRANCH_DIRECT_JUMP: 6e-05
BRANCH_INDIRECT: 1e-05
BRANCH_CONDITIONAL: 33.7854
BRANCH_DIRECT_CALL: 0.00013
BRANCH_INDIRECT_CALL: 2e-05
BRANCH_RETURN: 0.00013

