
*** ChampSim Multicore Out-of-Order Simulator ***

Warmup Instructions: 40000000
Simulation Instructions: 100000000
Number of CPUs: 1
Off-chip DRAM Size: 4 GiB Channels: 1 Width: 64-bit Data Rate: 3200 MT/s

VirtualMemory physical capacity: 4293914624 num_ppages: 1048319
VirtualMemory page size: 4096 log2_page_size: 12

CPU 0 runs ../../../../ICS/traces//Radii_25000M.champsim.xz
CPU 0 Bimodal branch predictor
Basic BTB sets: 1024 ways: 8 indirect buffer size: 4096 RAS size: 64
Heartbeat CPU 0 instructions: 10000000 cycles: 2714989 heartbeat IPC: 3.68326 cumulative IPC: 3.68326 (Simulation time: 0 hr 0 min 51 sec) 
Heartbeat CPU 0 instructions: 20000000 cycles: 5638492 heartbeat IPC: 3.42055 cumulative IPC: 3.54705 (Simulation time: 0 hr 1 min 49 sec) 
Heartbeat CPU 0 instructions: 30000004 cycles: 8596724 heartbeat IPC: 3.3804 cumulative IPC: 3.4897 (Simulation time: 0 hr 2 min 50 sec) 
Heartbeat CPU 0 instructions: 40000002 cycles: 11554678 heartbeat IPC: 3.38071 cumulative IPC: 3.4618 (Simulation time: 0 hr 3 min 26 sec) 

Warmup complete CPU 0 instructions: 40000002 cycles: 11554678 (Simulation time: 0 hr 3 min 26 sec) 

Heartbeat CPU 0 instructions: 50000000 cycles: 31807212 heartbeat IPC: 0.493765 cumulative IPC: 0.493765 (Simulation time: 0 hr 6 min 50 sec) 
Heartbeat CPU 0 instructions: 60000001 cycles: 60048446 heartbeat IPC: 0.354092 cumulative IPC: 0.412424 (Simulation time: 0 hr 8 min 39 sec) 
Heartbeat CPU 0 instructions: 70000003 cycles: 84001081 heartbeat IPC: 0.417491 cumulative IPC: 0.414099 (Simulation time: 0 hr 10 min 16 sec) 
Heartbeat CPU 0 instructions: 80000003 cycles: 98034335 heartbeat IPC: 0.712593 cumulative IPC: 0.462537 (Simulation time: 0 hr 12 min 29 sec) 
Heartbeat CPU 0 instructions: 90000001 cycles: 121528295 heartbeat IPC: 0.425641 cumulative IPC: 0.454654 (Simulation time: 0 hr 14 min 42 sec) 
Heartbeat CPU 0 instructions: 100000000 cycles: 144664655 heartbeat IPC: 0.43222 cumulative IPC: 0.450755 (Simulation time: 0 hr 16 min 23 sec) 
Heartbeat CPU 0 instructions: 110000001 cycles: 159063072 heartbeat IPC: 0.694521 cumulative IPC: 0.474549 (Simulation time: 0 hr 18 min 4 sec) 
Heartbeat CPU 0 instructions: 120000004 cycles: 182339512 heartbeat IPC: 0.429619 cumulative IPC: 0.468426 (Simulation time: 0 hr 18 min 57 sec) 
Heartbeat CPU 0 instructions: 130000000 cycles: 199519358 heartbeat IPC: 0.582077 cumulative IPC: 0.478813 (Simulation time: 0 hr 19 min 38 sec) 
Heartbeat CPU 0 instructions: 140000000 cycles: 220824451 heartbeat IPC: 0.469371 cumulative IPC: 0.477852 (Simulation time: 0 hr 20 min 54 sec) 
Finished CPU 0 instructions: 100000003 cycles: 209269774 cumulative IPC: 0.477852 (Simulation time: 0 hr 20 min 54 sec) 

ChampSim completed all CPUs

Region of Interest Statistics

CPU 0 cumulative IPC: 0.477852 instructions: 100000003 cycles: 209269774
cpu0_DTLB TOTAL     ACCESS:   25153922  HIT:   22364401  MISS:    2789521
cpu0_DTLB LOAD      ACCESS:   18143336  HIT:   15750569  MISS:    2392767
cpu0_DTLB RFO       ACCESS:    7010586  HIT:    6613832  MISS:     396754
cpu0_DTLB PREFETCH  ACCESS:          0  HIT:          0  MISS:          0
cpu0_DTLB WRITEBACK ACCESS:          0  HIT:          0  MISS:          0
cpu0_DTLB TRANSLATION ACCESS:          0  HIT:          0  MISS:          0
cpu0_DTLB PREFETCH  REQUESTED:          0  ISSUED:          0  USEFUL:          0  USELESS:          0
cpu0_DTLB AVERAGE MISS LATENCY: 21.978 cycles
cpu0_DTLB MSHR FULL EVENTS: 1312143 MSHR MERGE EVENTS: 486193
cpu0_ITLB TOTAL     ACCESS:    8149397  HIT:    8149396  MISS:          1
cpu0_ITLB LOAD      ACCESS:    8149397  HIT:    8149396  MISS:          1
cpu0_ITLB RFO       ACCESS:          0  HIT:          0  MISS:          0
cpu0_ITLB PREFETCH  ACCESS:          0  HIT:          0  MISS:          0
cpu0_ITLB WRITEBACK ACCESS:          0  HIT:          0  MISS:          0
cpu0_ITLB TRANSLATION ACCESS:          0  HIT:          0  MISS:          0
cpu0_ITLB PREFETCH  REQUESTED:          0  ISSUED:          0  USEFUL:          0  USELESS:          0
cpu0_ITLB AVERAGE MISS LATENCY: 247 cycles
cpu0_ITLB MSHR FULL EVENTS: 0 MSHR MERGE EVENTS: 0
cpu0_L1I TOTAL     ACCESS:       1201  HIT:       1172  MISS:         29
cpu0_L1I LOAD      ACCESS:       1201  HIT:       1172  MISS:         29
cpu0_L1I RFO       ACCESS:          0  HIT:          0  MISS:          0
cpu0_L1I PREFETCH  ACCESS:          0  HIT:          0  MISS:          0
cpu0_L1I WRITEBACK ACCESS:          0  HIT:          0  MISS:          0
cpu0_L1I TRANSLATION ACCESS:          0  HIT:          0  MISS:          0
cpu0_L1I PREFETCH  REQUESTED:          0  ISSUED:          0  USEFUL:          0  USELESS:          0
cpu0_L1I AVERAGE MISS LATENCY: 189.552 cycles
cpu0_L1I MSHR FULL EVENTS: 0 MSHR MERGE EVENTS: 0
cpu0_STLB TOTAL     ACCESS:    2789522  HIT:     542528  MISS:    2246994
cpu0_STLB LOAD      ACCESS:    2392768  HIT:     461807  MISS:    1930961
cpu0_STLB RFO       ACCESS:     396754  HIT:      80721  MISS:     316033
cpu0_STLB PREFETCH  ACCESS:          0  HIT:          0  MISS:          0
cpu0_STLB WRITEBACK ACCESS:          0  HIT:          0  MISS:          0
cpu0_STLB TRANSLATION ACCESS:          0  HIT:          0  MISS:          0
cpu0_STLB PREFETCH  REQUESTED:          0  ISSUED:          0  USEFUL:          0  USELESS:          0
cpu0_STLB AVERAGE MISS LATENCY: 17.0919 cycles
cpu0_STLB MSHR FULL EVENTS: 0 MSHR MERGE EVENTS: 0
cpu0_L1D TOTAL     ACCESS:   24533262  HIT:   19500760  MISS:    5032502
cpu0_L1D LOAD      ACCESS:   15354875  HIT:   11312823  MISS:    4042052
cpu0_L1D RFO       ACCESS:    7343250  HIT:    6356745  MISS:     986505
cpu0_L1D PREFETCH  ACCESS:          0  HIT:          0  MISS:          0
cpu0_L1D WRITEBACK ACCESS:          0  HIT:          0  MISS:          0
cpu0_L1D TRANSLATION ACCESS:    1835137  HIT:    1831192  MISS:       3945
cpu0_L1D PREFETCH  REQUESTED:          0  ISSUED:          0  USEFUL:          0  USELESS:          0
cpu0_L1D AVERAGE MISS LATENCY: 137.824 cycles
cpu0_L1D MSHR FULL EVENTS: 19409723 MSHR MERGE EVENTS: 4110684
cpu0_L2C TOTAL     ACCESS:    6819504  HIT:    1991671  MISS:    4827822
cpu0_L2C LOAD      ACCESS:    4042081  HIT:     185760  MISS:    3856321
cpu0_L2C RFO       ACCESS:     986493  HIT:      15339  MISS:     971154
cpu0_L2C PREFETCH  ACCESS:          0  HIT:          0  MISS:          0
cpu0_L2C WRITEBACK ACCESS:    1786985  HIT:    1786974  MISS:         11
cpu0_L2C TRANSLATION ACCESS:       3945  HIT:       3598  MISS:        347
cpu0_L2C PREFETCH  REQUESTED:          0  ISSUED:          0  USEFUL:          0  USELESS:          0
cpu0_L2C AVERAGE MISS LATENCY: 133.161 cycles
cpu0_L2C MSHR FULL EVENTS: 2371 MSHR MERGE EVENTS: 0
LLC TOTAL     ACCESS:    9655639  HIT:    3485329  MISS:    1342491
LLC LOAD      ACCESS:    3856313  HIT:    2584629  MISS:    1271684
LLC RFO       ACCESS:     971146  HIT:     900357  MISS:      70789
LLC PREFETCH  ACCESS:          0  HIT:          0  MISS:          0
LLC WRITEBACK ACCESS:    4827833  HIT:         14  MISS:    4827819
LLC TRANSLATION ACCESS:        347  HIT:        329  MISS:         18
LLC PREFETCH  REQUESTED:          0  ISSUED:          0  USEFUL:          0  USELESS:          0
LLC AVERAGE MISS LATENCY: 404.273 cycles
LLC MSHR FULL EVENTS: 0 MSHR MERGE EVENTS: 0
blocks bypassed = 0
blocks filled to llc = 0

DRAM Statistics
 CHANNEL 0
 RQ ROW_BUFFER_HIT:      52584  ROW_BUFFER_MISS:    1289839
 DBUS AVG_CONGESTED_CYCLE:    3.89357
 WQ ROW_BUFFER_HIT:      50672  ROW_BUFFER_MISS:     144573  FULL:       4201


CPU 0 Branch Prediction Accuracy: 88.5322% MPKI: 18.7745 Average ROB Occupancy at Mispredict: 33.7965
Branch type MPKI
BRANCH_DIRECT_JUMP: 0.0001
BRANCH_INDIRECT: 0
BRANCH_CONDITIONAL: 18.7742
BRANCH_DIRECT_CALL: 9e-05
BRANCH_INDIRECT_CALL: 0
BRANCH_RETURN: 0.00011

