
*** ChampSim Multicore Out-of-Order Simulator ***

Warmup Instructions: 40000000
Simulation Instructions: 100000000
Number of CPUs: 1
Off-chip DRAM Size: 4 GiB Channels: 1 Width: 64-bit Data Rate: 3200 MT/s

VirtualMemory physical capacity: 4293914624 num_ppages: 1048319
VirtualMemory page size: 4096 log2_page_size: 12

CPU 0 runs ../../../../ICS/traces//bc-12.trace.gz
CPU 0 Bimodal branch predictor
Basic BTB sets: 1024 ways: 8 indirect buffer size: 4096 RAS size: 64
Heartbeat CPU 0 instructions: 10000003 cycles: 3161879 heartbeat IPC: 3.16268 cumulative IPC: 3.16268 (Simulation time: 0 hr 1 min 5 sec) 
Heartbeat CPU 0 instructions: 20000003 cycles: 5714051 heartbeat IPC: 3.91823 cumulative IPC: 3.50014 (Simulation time: 0 hr 1 min 56 sec) 
Heartbeat CPU 0 instructions: 30000000 cycles: 8259748 heartbeat IPC: 3.9282 cumulative IPC: 3.63207 (Simulation time: 0 hr 2 min 44 sec) 
Heartbeat CPU 0 instructions: 40000004 cycles: 10816169 heartbeat IPC: 3.91172 cumulative IPC: 3.69817 (Simulation time: 0 hr 3 min 40 sec) 

Warmup complete CPU 0 instructions: 40000004 cycles: 10816169 (Simulation time: 0 hr 3 min 40 sec) 

Heartbeat CPU 0 instructions: 50000004 cycles: 35340250 heartbeat IPC: 0.407762 cumulative IPC: 0.407762 (Simulation time: 0 hr 4 min 54 sec) 
Heartbeat CPU 0 instructions: 60000001 cycles: 59931402 heartbeat IPC: 0.40665 cumulative IPC: 0.407206 (Simulation time: 0 hr 6 min 14 sec) 
Heartbeat CPU 0 instructions: 70000000 cycles: 84805739 heartbeat IPC: 0.402021 cumulative IPC: 0.405463 (Simulation time: 0 hr 7 min 27 sec) 
Heartbeat CPU 0 instructions: 80000002 cycles: 109911750 heartbeat IPC: 0.398311 cumulative IPC: 0.403651 (Simulation time: 0 hr 8 min 44 sec) 
Heartbeat CPU 0 instructions: 90000000 cycles: 134884843 heartbeat IPC: 0.400431 cumulative IPC: 0.403003 (Simulation time: 0 hr 10 min 11 sec) 
Heartbeat CPU 0 instructions: 100000001 cycles: 159813918 heartbeat IPC: 0.401138 cumulative IPC: 0.402691 (Simulation time: 0 hr 11 min 24 sec) 
Heartbeat CPU 0 instructions: 110000000 cycles: 184766010 heartbeat IPC: 0.400768 cumulative IPC: 0.402415 (Simulation time: 0 hr 12 min 56 sec) 
Heartbeat CPU 0 instructions: 120000001 cycles: 209285310 heartbeat IPC: 0.407842 cumulative IPC: 0.403085 (Simulation time: 0 hr 14 min 27 sec) 
Heartbeat CPU 0 instructions: 130000000 cycles: 234373534 heartbeat IPC: 0.398593 cumulative IPC: 0.402581 (Simulation time: 0 hr 15 min 58 sec) 
Heartbeat CPU 0 instructions: 140000000 cycles: 258828415 heartbeat IPC: 0.408916 cumulative IPC: 0.403206 (Simulation time: 0 hr 17 min 26 sec) 
Finished CPU 0 instructions: 100000001 cycles: 248012270 cumulative IPC: 0.403206 (Simulation time: 0 hr 17 min 26 sec) 

ChampSim completed all CPUs

Region of Interest Statistics

CPU 0 cumulative IPC: 0.403206 instructions: 100000001 cycles: 248012270
cpu0_DTLB TOTAL     ACCESS:   23548701  HIT:   19904324  MISS:    3644377
cpu0_DTLB LOAD      ACCESS:   18517287  HIT:   16152493  MISS:    2364794
cpu0_DTLB RFO       ACCESS:    5031414  HIT:    3751831  MISS:    1279583
cpu0_DTLB PREFETCH  ACCESS:          0  HIT:          0  MISS:          0
cpu0_DTLB WRITEBACK ACCESS:          0  HIT:          0  MISS:          0
cpu0_DTLB TRANSLATION ACCESS:          0  HIT:          0  MISS:          0
cpu0_DTLB PREFETCH  REQUESTED:          0  ISSUED:          0  USEFUL:          0  USELESS:          0
cpu0_DTLB AVERAGE MISS LATENCY: 12.806 cycles
cpu0_DTLB MSHR FULL EVENTS: 3643 MSHR MERGE EVENTS: 510350
cpu0_ITLB TOTAL     ACCESS:   11872192  HIT:   11872192  MISS:          0
cpu0_ITLB LOAD      ACCESS:   11872192  HIT:   11872192  MISS:          0
cpu0_ITLB RFO       ACCESS:          0  HIT:          0  MISS:          0
cpu0_ITLB PREFETCH  ACCESS:          0  HIT:          0  MISS:          0
cpu0_ITLB WRITEBACK ACCESS:          0  HIT:          0  MISS:          0
cpu0_ITLB TRANSLATION ACCESS:          0  HIT:          0  MISS:          0
cpu0_ITLB PREFETCH  REQUESTED:          0  ISSUED:          0  USEFUL:          0  USELESS:          0
cpu0_ITLB AVERAGE MISS LATENCY: -nan cycles
cpu0_ITLB MSHR FULL EVENTS: 0 MSHR MERGE EVENTS: 0
cpu0_L1I TOTAL     ACCESS:        187  HIT:        187  MISS:          0
cpu0_L1I LOAD      ACCESS:        187  HIT:        187  MISS:          0
cpu0_L1I RFO       ACCESS:          0  HIT:          0  MISS:          0
cpu0_L1I PREFETCH  ACCESS:          0  HIT:          0  MISS:          0
cpu0_L1I WRITEBACK ACCESS:          0  HIT:          0  MISS:          0
cpu0_L1I TRANSLATION ACCESS:          0  HIT:          0  MISS:          0
cpu0_L1I PREFETCH  REQUESTED:          0  ISSUED:          0  USEFUL:          0  USELESS:          0
cpu0_L1I AVERAGE MISS LATENCY: -nan cycles
cpu0_L1I MSHR FULL EVENTS: 0 MSHR MERGE EVENTS: 0
cpu0_STLB TOTAL     ACCESS:    3644377  HIT:    2025356  MISS:    1619021
cpu0_STLB LOAD      ACCESS:    2364794  HIT:    1506034  MISS:     858760
cpu0_STLB RFO       ACCESS:    1279583  HIT:     519322  MISS:     760261
cpu0_STLB PREFETCH  ACCESS:          0  HIT:          0  MISS:          0
cpu0_STLB WRITEBACK ACCESS:          0  HIT:          0  MISS:          0
cpu0_STLB TRANSLATION ACCESS:          0  HIT:          0  MISS:          0
cpu0_STLB PREFETCH  REQUESTED:          0  ISSUED:          0  USEFUL:          0  USELESS:          0
cpu0_STLB AVERAGE MISS LATENCY: 9.4372 cycles
cpu0_STLB MSHR FULL EVENTS: 0 MSHR MERGE EVENTS: 0
cpu0_L1D TOTAL     ACCESS:   30532099  HIT:   22009137  MISS:    8522962
cpu0_L1D LOAD      ACCESS:   23321023  HIT:   14826300  MISS:    8494723
cpu0_L1D RFO       ACCESS:    5650891  HIT:    5628091  MISS:      22800
cpu0_L1D PREFETCH  ACCESS:          0  HIT:          0  MISS:          0
cpu0_L1D WRITEBACK ACCESS:          0  HIT:          0  MISS:          0
cpu0_L1D TRANSLATION ACCESS:    1560185  HIT:    1554746  MISS:       5439
cpu0_L1D PREFETCH  REQUESTED:          0  ISSUED:          0  USEFUL:          0  USELESS:          0
cpu0_L1D AVERAGE MISS LATENCY: 30.1301 cycles
cpu0_L1D MSHR FULL EVENTS: 198937 MSHR MERGE EVENTS: 191201
cpu0_L2C TOTAL     ACCESS:   11374474  HIT:    4961043  MISS:    6413415
cpu0_L2C LOAD      ACCESS:    8494722  HIT:    2103946  MISS:    6390776
cpu0_L2C RFO       ACCESS:      22800  HIT:        289  MISS:      22511
cpu0_L2C PREFETCH  ACCESS:          0  HIT:          0  MISS:          0
cpu0_L2C WRITEBACK ACCESS:    2851513  HIT:    2851497  MISS:         16
cpu0_L2C TRANSLATION ACCESS:       5439  HIT:       5311  MISS:        128
cpu0_L2C PREFETCH  REQUESTED:          0  ISSUED:          0  USEFUL:          0  USELESS:          0
cpu0_L2C AVERAGE MISS LATENCY: 26.1406 cycles
cpu0_L2C MSHR FULL EVENTS: 0 MSHR MERGE EVENTS: 0
LLC TOTAL     ACCESS:   12826836  HIT:    6034225  MISS:     379190
LLC LOAD      ACCESS:    6390767  HIT:    6022842  MISS:     367925
LLC RFO       ACCESS:      22511  HIT:      11247  MISS:      11264
LLC PREFETCH  ACCESS:          0  HIT:          0  MISS:          0
LLC WRITEBACK ACCESS:    6413430  HIT:          9  MISS:    6413421
LLC TRANSLATION ACCESS:        128  HIT:        127  MISS:          1
LLC PREFETCH  REQUESTED:          0  ISSUED:          0  USEFUL:          0  USELESS:          0
LLC AVERAGE MISS LATENCY: 87.9465 cycles
LLC MSHR FULL EVENTS: 0 MSHR MERGE EVENTS: 0
blocks bypassed = 0
blocks filled to llc = 0

DRAM Statistics
 CHANNEL 0
 RQ ROW_BUFFER_HIT:     288446  ROW_BUFFER_MISS:      90744
 DBUS AVG_CONGESTED_CYCLE:    3.99179
 WQ ROW_BUFFER_HIT:       1674  ROW_BUFFER_MISS:       9639  FULL:          0


CPU 0 Branch Prediction Accuracy: 81.7743% MPKI: 31.8287 Average ROB Occupancy at Mispredict: 20.9143
Branch type MPKI
BRANCH_DIRECT_JUMP: 0
BRANCH_INDIRECT: 0
BRANCH_CONDITIONAL: 31.8287
BRANCH_DIRECT_CALL: 0
BRANCH_INDIRECT_CALL: 0
BRANCH_RETURN: 0

