
*** ChampSim Multicore Out-of-Order Simulator ***

Warmup Instructions: 40000000
Simulation Instructions: 100000000
Number of CPUs: 1
Off-chip DRAM Size: 4 GiB Channels: 1 Width: 64-bit Data Rate: 3200 MT/s

VirtualMemory physical capacity: 4293914624 num_ppages: 1048319
VirtualMemory page size: 4096 log2_page_size: 12

CPU 0 runs ../../../../ICS/traces//PageRankDelta_35250M.champsim.xz
CPU 0 Bimodal branch predictor
Basic BTB sets: 1024 ways: 8 indirect buffer size: 4096 RAS size: 64
Heartbeat CPU 0 instructions: 10000000 cycles: 2500056 heartbeat IPC: 3.99991 cumulative IPC: 3.99991 (Simulation time: 0 hr 0 min 27 sec) 
Heartbeat CPU 0 instructions: 20000000 cycles: 5000056 heartbeat IPC: 4 cumulative IPC: 3.99996 (Simulation time: 0 hr 0 min 52 sec) 
Heartbeat CPU 0 instructions: 30000000 cycles: 7500056 heartbeat IPC: 4 cumulative IPC: 3.99997 (Simulation time: 0 hr 1 min 20 sec) 
Heartbeat CPU 0 instructions: 40000000 cycles: 10000056 heartbeat IPC: 4 cumulative IPC: 3.99998 (Simulation time: 0 hr 1 min 46 sec) 

Warmup complete CPU 0 instructions: 40000004 cycles: 10000057 (Simulation time: 0 hr 1 min 46 sec) 

Heartbeat CPU 0 instructions: 50000003 cycles: 34636387 heartbeat IPC: 0.405905 cumulative IPC: 0.405905 (Simulation time: 0 hr 2 min 46 sec) 
Heartbeat CPU 0 instructions: 60000003 cycles: 50902755 heartbeat IPC: 0.614765 cumulative IPC: 0.488965 (Simulation time: 0 hr 3 min 47 sec) 
Heartbeat CPU 0 instructions: 70000001 cycles: 54157965 heartbeat IPC: 3.072 cumulative IPC: 0.67938 (Simulation time: 0 hr 4 min 27 sec) 
Heartbeat CPU 0 instructions: 80000000 cycles: 70751715 heartbeat IPC: 0.602636 cumulative IPC: 0.658418 (Simulation time: 0 hr 6 min 12 sec) 
Heartbeat CPU 0 instructions: 90000002 cycles: 99122874 heartbeat IPC: 0.352471 cumulative IPC: 0.561024 (Simulation time: 0 hr 9 min 39 sec) 
Heartbeat CPU 0 instructions: 100000002 cycles: 137059589 heartbeat IPC: 0.263597 cumulative IPC: 0.47222 (Simulation time: 0 hr 13 min 33 sec) 
Heartbeat CPU 0 instructions: 110000001 cycles: 157964235 heartbeat IPC: 0.478363 cumulative IPC: 0.473087 (Simulation time: 0 hr 14 min 59 sec) 
Heartbeat CPU 0 instructions: 120000001 cycles: 161639381 heartbeat IPC: 2.72098 cumulative IPC: 0.527568 (Simulation time: 0 hr 15 min 30 sec) 
Heartbeat CPU 0 instructions: 130000002 cycles: 165184014 heartbeat IPC: 2.82117 cumulative IPC: 0.579957 (Simulation time: 0 hr 16 min 0 sec) 
Heartbeat CPU 0 instructions: 140000002 cycles: 168310932 heartbeat IPC: 3.19804 cumulative IPC: 0.631669 (Simulation time: 0 hr 16 min 24 sec) 
Finished CPU 0 instructions: 100000003 cycles: 158310876 cumulative IPC: 0.631669 (Simulation time: 0 hr 16 min 24 sec) 

ChampSim completed all CPUs

Region of Interest Statistics

CPU 0 cumulative IPC: 0.631669 instructions: 100000003 cycles: 158310876
cpu0_DTLB TOTAL     ACCESS:   20554398  HIT:   20515834  MISS:      38564
cpu0_DTLB LOAD      ACCESS:   14582375  HIT:   14561226  MISS:      21149
cpu0_DTLB RFO       ACCESS:    5972023  HIT:    5954608  MISS:      17415
cpu0_DTLB PREFETCH  ACCESS:          0  HIT:          0  MISS:          0
cpu0_DTLB WRITEBACK ACCESS:          0  HIT:          0  MISS:          0
cpu0_DTLB TRANSLATION ACCESS:          0  HIT:          0  MISS:          0
cpu0_DTLB PREFETCH  REQUESTED:          0  ISSUED:          0  USEFUL:          0  USELESS:          0
cpu0_DTLB AVERAGE MISS LATENCY: 118.89 cycles
cpu0_DTLB MSHR FULL EVENTS: 0 MSHR MERGE EVENTS: 201431
cpu0_ITLB TOTAL     ACCESS:    1932464  HIT:    1932455  MISS:          9
cpu0_ITLB LOAD      ACCESS:    1932464  HIT:    1932455  MISS:          9
cpu0_ITLB RFO       ACCESS:          0  HIT:          0  MISS:          0
cpu0_ITLB PREFETCH  ACCESS:          0  HIT:          0  MISS:          0
cpu0_ITLB WRITEBACK ACCESS:          0  HIT:          0  MISS:          0
cpu0_ITLB TRANSLATION ACCESS:          0  HIT:          0  MISS:          0
cpu0_ITLB PREFETCH  REQUESTED:          0  ISSUED:          0  USEFUL:          0  USELESS:          0
cpu0_ITLB AVERAGE MISS LATENCY: 247.778 cycles
cpu0_ITLB MSHR FULL EVENTS: 0 MSHR MERGE EVENTS: 0
cpu0_L1I TOTAL     ACCESS:        306  HIT:        186  MISS:        120
cpu0_L1I LOAD      ACCESS:        306  HIT:        186  MISS:        120
cpu0_L1I RFO       ACCESS:          0  HIT:          0  MISS:          0
cpu0_L1I PREFETCH  ACCESS:          0  HIT:          0  MISS:          0
cpu0_L1I WRITEBACK ACCESS:          0  HIT:          0  MISS:          0
cpu0_L1I TRANSLATION ACCESS:          0  HIT:          0  MISS:          0
cpu0_L1I PREFETCH  REQUESTED:          0  ISSUED:          0  USEFUL:          0  USELESS:          0
cpu0_L1I AVERAGE MISS LATENCY: 186.483 cycles
cpu0_L1I MSHR FULL EVENTS: 0 MSHR MERGE EVENTS: 0
cpu0_STLB TOTAL     ACCESS:      38573  HIT:         36  MISS:      38537
cpu0_STLB LOAD      ACCESS:      21158  HIT:         31  MISS:      21127
cpu0_STLB RFO       ACCESS:      17415  HIT:          5  MISS:      17410
cpu0_STLB PREFETCH  ACCESS:          0  HIT:          0  MISS:          0
cpu0_STLB WRITEBACK ACCESS:          0  HIT:          0  MISS:          0
cpu0_STLB TRANSLATION ACCESS:          0  HIT:          0  MISS:          0
cpu0_STLB PREFETCH  REQUESTED:          0  ISSUED:          0  USEFUL:          0  USELESS:          0
cpu0_STLB AVERAGE MISS LATENCY: 111.023 cycles
cpu0_STLB MSHR FULL EVENTS: 0 MSHR MERGE EVENTS: 0
cpu0_L1D TOTAL     ACCESS:    9708617  HIT:    7244738  MISS:    2463879
cpu0_L1D LOAD      ACCESS:    7154192  HIT:    5804315  MISS:    1349877
cpu0_L1D RFO       ACCESS:    2515887  HIT:    1402293  MISS:    1113594
cpu0_L1D PREFETCH  ACCESS:          0  HIT:          0  MISS:          0
cpu0_L1D WRITEBACK ACCESS:          0  HIT:          0  MISS:          0
cpu0_L1D TRANSLATION ACCESS:      38538  HIT:      38130  MISS:        408
cpu0_L1D PREFETCH  REQUESTED:          0  ISSUED:          0  USEFUL:          0  USELESS:          0
cpu0_L1D AVERAGE MISS LATENCY: 320.072 cycles
cpu0_L1D MSHR FULL EVENTS: 47610213 MSHR MERGE EVENTS: 7391682
cpu0_L2C TOTAL     ACCESS:    3665701  HIT:    1202105  MISS:    2463596
cpu0_L2C LOAD      ACCESS:    1349997  HIT:         40  MISS:    1349957
cpu0_L2C RFO       ACCESS:    1113594  HIT:          0  MISS:    1113594
cpu0_L2C PREFETCH  ACCESS:          0  HIT:          0  MISS:          0
cpu0_L2C WRITEBACK ACCESS:    1201702  HIT:    1201702  MISS:          0
cpu0_L2C TRANSLATION ACCESS:        408  HIT:        363  MISS:         45
cpu0_L2C PREFETCH  REQUESTED:          0  ISSUED:          0  USEFUL:          0  USELESS:          0
cpu0_L2C AVERAGE MISS LATENCY: 310.946 cycles
cpu0_L2C MSHR FULL EVENTS: 80674 MSHR MERGE EVENTS: 0
LLC TOTAL     ACCESS:    4927192  HIT:    1137476  MISS:    1326120
LLC LOAD      ACCESS:    1349957  HIT:     557508  MISS:     792449
LLC RFO       ACCESS:    1113594  HIT:     579933  MISS:     533661
LLC PREFETCH  ACCESS:          0  HIT:          0  MISS:          0
LLC WRITEBACK ACCESS:    2463596  HIT:          0  MISS:    2463596
LLC TRANSLATION ACCESS:         45  HIT:         35  MISS:         10
LLC PREFETCH  REQUESTED:          0  ISSUED:          0  USEFUL:          0  USELESS:          0
LLC AVERAGE MISS LATENCY: 537.638 cycles
LLC MSHR FULL EVENTS: 0 MSHR MERGE EVENTS: 0
blocks bypassed = 0
blocks filled to llc = 0

DRAM Statistics
 CHANNEL 0
 RQ ROW_BUFFER_HIT:     244328  ROW_BUFFER_MISS:    1081770
 DBUS AVG_CONGESTED_CYCLE:    3.98565
 WQ ROW_BUFFER_HIT:     161189  ROW_BUFFER_MISS:     433189  FULL:     507682


CPU 0 Branch Prediction Accuracy: 98.8599% MPKI: 2.49073 Average ROB Occupancy at Mispredict: 49.4298
Branch type MPKI
BRANCH_DIRECT_JUMP: 0.00026
BRANCH_INDIRECT: 0
BRANCH_CONDITIONAL: 2.49009
BRANCH_DIRECT_CALL: 0.0002
BRANCH_INDIRECT_CALL: 0
BRANCH_RETURN: 0.00018

