
*** ChampSim Multicore Out-of-Order Simulator ***

Warmup Instructions: 40000000
Simulation Instructions: 100000000
Number of CPUs: 1
Off-chip DRAM Size: 4 GiB Channels: 1 Width: 64-bit Data Rate: 3200 MT/s

VirtualMemory physical capacity: 4293914624 num_ppages: 1048319
VirtualMemory page size: 4096 log2_page_size: 12

CPU 0 runs ../../../../ICS/traces//CF.184750M.champsimtrace.xz
CPU 0 Bimodal branch predictor
Basic BTB sets: 1024 ways: 8 indirect buffer size: 4096 RAS size: 64
Heartbeat CPU 0 instructions: 10000001 cycles: 2500068 heartbeat IPC: 3.99989 cumulative IPC: 3.99989 (Simulation time: 0 hr 0 min 27 sec) 
Heartbeat CPU 0 instructions: 20000001 cycles: 5000068 heartbeat IPC: 4 cumulative IPC: 3.99995 (Simulation time: 0 hr 0 min 53 sec) 
Heartbeat CPU 0 instructions: 30000001 cycles: 7500068 heartbeat IPC: 4 cumulative IPC: 3.99996 (Simulation time: 0 hr 1 min 20 sec) 
Heartbeat CPU 0 instructions: 40000001 cycles: 10000068 heartbeat IPC: 4 cumulative IPC: 3.99997 (Simulation time: 0 hr 1 min 48 sec) 

Warmup complete CPU 0 instructions: 40000001 cycles: 10000068 (Simulation time: 0 hr 1 min 48 sec) 

Heartbeat CPU 0 instructions: 50000000 cycles: 18152879 heartbeat IPC: 1.22657 cumulative IPC: 1.22657 (Simulation time: 0 hr 2 min 44 sec) 
Heartbeat CPU 0 instructions: 60000003 cycles: 25724766 heartbeat IPC: 1.32068 cumulative IPC: 1.27188 (Simulation time: 0 hr 3 min 29 sec) 
Heartbeat CPU 0 instructions: 70000004 cycles: 34553835 heartbeat IPC: 1.13262 cumulative IPC: 1.22181 (Simulation time: 0 hr 4 min 30 sec) 
Heartbeat CPU 0 instructions: 80000001 cycles: 43151124 heartbeat IPC: 1.16316 cumulative IPC: 1.2066 (Simulation time: 0 hr 5 min 31 sec) 
Heartbeat CPU 0 instructions: 90000001 cycles: 51726971 heartbeat IPC: 1.16607 cumulative IPC: 1.19827 (Simulation time: 0 hr 6 min 33 sec) 
Heartbeat CPU 0 instructions: 100000000 cycles: 59736838 heartbeat IPC: 1.24846 cumulative IPC: 1.20635 (Simulation time: 0 hr 7 min 31 sec) 
Heartbeat CPU 0 instructions: 110000001 cycles: 68468254 heartbeat IPC: 1.14529 cumulative IPC: 1.19723 (Simulation time: 0 hr 8 min 35 sec) 
Heartbeat CPU 0 instructions: 120000000 cycles: 76992791 heartbeat IPC: 1.17308 cumulative IPC: 1.19416 (Simulation time: 0 hr 9 min 38 sec) 
Heartbeat CPU 0 instructions: 130000001 cycles: 85270794 heartbeat IPC: 1.20802 cumulative IPC: 1.19568 (Simulation time: 0 hr 10 min 25 sec) 
Heartbeat CPU 0 instructions: 140000002 cycles: 94137550 heartbeat IPC: 1.12781 cumulative IPC: 1.18853 (Simulation time: 0 hr 11 min 6 sec) 
Finished CPU 0 instructions: 100000001 cycles: 84137482 cumulative IPC: 1.18853 (Simulation time: 0 hr 11 min 6 sec) 

ChampSim completed all CPUs

Region of Interest Statistics

CPU 0 cumulative IPC: 1.18853 instructions: 100000001 cycles: 84137482
cpu0_DTLB TOTAL     ACCESS:   16077338  HIT:   15740369  MISS:     336969
cpu0_DTLB LOAD      ACCESS:   14152234  HIT:   13815271  MISS:     336963
cpu0_DTLB RFO       ACCESS:    1925104  HIT:    1925098  MISS:          6
cpu0_DTLB PREFETCH  ACCESS:          0  HIT:          0  MISS:          0
cpu0_DTLB WRITEBACK ACCESS:          0  HIT:          0  MISS:          0
cpu0_DTLB TRANSLATION ACCESS:          0  HIT:          0  MISS:          0
cpu0_DTLB PREFETCH  REQUESTED:          0  ISSUED:          0  USEFUL:          0  USELESS:          0
cpu0_DTLB AVERAGE MISS LATENCY: 36.8076 cycles
cpu0_DTLB MSHR FULL EVENTS: 0 MSHR MERGE EVENTS: 403027
cpu0_ITLB TOTAL     ACCESS:   10442453  HIT:   10442453  MISS:          0
cpu0_ITLB LOAD      ACCESS:   10442453  HIT:   10442453  MISS:          0
cpu0_ITLB RFO       ACCESS:          0  HIT:          0  MISS:          0
cpu0_ITLB PREFETCH  ACCESS:          0  HIT:          0  MISS:          0
cpu0_ITLB WRITEBACK ACCESS:          0  HIT:          0  MISS:          0
cpu0_ITLB TRANSLATION ACCESS:          0  HIT:          0  MISS:          0
cpu0_ITLB PREFETCH  REQUESTED:          0  ISSUED:          0  USEFUL:          0  USELESS:          0
cpu0_ITLB AVERAGE MISS LATENCY: -nan cycles
cpu0_ITLB MSHR FULL EVENTS: 0 MSHR MERGE EVENTS: 0
cpu0_STLB TOTAL     ACCESS:     336969  HIT:     165660  MISS:     171309
cpu0_STLB LOAD      ACCESS:     336963  HIT:     165658  MISS:     171305
cpu0_STLB RFO       ACCESS:          6  HIT:          2  MISS:          4
cpu0_STLB PREFETCH  ACCESS:          0  HIT:          0  MISS:          0
cpu0_STLB WRITEBACK ACCESS:          0  HIT:          0  MISS:          0
cpu0_STLB TRANSLATION ACCESS:          0  HIT:          0  MISS:          0
cpu0_STLB PREFETCH  REQUESTED:          0  ISSUED:          0  USEFUL:          0  USELESS:          0
cpu0_STLB AVERAGE MISS LATENCY: 55.7105 cycles
cpu0_STLB MSHR FULL EVENTS: 0 MSHR MERGE EVENTS: 0
cpu0_L1D TOTAL     ACCESS:   14069480  HIT:   12961535  MISS:    1107945
cpu0_L1D LOAD      ACCESS:    9295972  HIT:    8195835  MISS:    1100137
cpu0_L1D RFO       ACCESS:    4602210  HIT:    4602210  MISS:          0
cpu0_L1D PREFETCH  ACCESS:          0  HIT:          0  MISS:          0
cpu0_L1D WRITEBACK ACCESS:          0  HIT:          0  MISS:          0
cpu0_L1D TRANSLATION ACCESS:     171298  HIT:     163490  MISS:       7808
cpu0_L1D PREFETCH  REQUESTED:          0  ISSUED:          0  USEFUL:          0  USELESS:          0
cpu0_L1D AVERAGE MISS LATENCY: 158.686 cycles
cpu0_L1D MSHR FULL EVENTS: 0 MSHR MERGE EVENTS: 1549824
cpu0_L2C TOTAL     ACCESS:    1255954  HIT:     233544  MISS:    1022410
cpu0_L2C LOAD      ACCESS:    1100137  HIT:      77956  MISS:    1022181
cpu0_L2C RFO       ACCESS:          0  HIT:          0  MISS:          0
cpu0_L2C PREFETCH  ACCESS:          0  HIT:          0  MISS:          0
cpu0_L2C WRITEBACK ACCESS:     148009  HIT:     148009  MISS:          0
cpu0_L2C TRANSLATION ACCESS:       7808  HIT:       7579  MISS:        229
cpu0_L2C PREFETCH  REQUESTED:          0  ISSUED:          0  USEFUL:          0  USELESS:          0
cpu0_L2C AVERAGE MISS LATENCY: 161.023 cycles
cpu0_L2C MSHR FULL EVENTS: 0 MSHR MERGE EVENTS: 0
LLC TOTAL     ACCESS:    2044818  HIT:     207619  MISS:     814791
LLC LOAD      ACCESS:    1022181  HIT:     207391  MISS:     814790
LLC RFO       ACCESS:          0  HIT:          0  MISS:          0
LLC PREFETCH  ACCESS:          0  HIT:          0  MISS:          0
LLC WRITEBACK ACCESS:    1022408  HIT:          0  MISS:    1022408
LLC TRANSLATION ACCESS:        229  HIT:        228  MISS:          1
LLC PREFETCH  REQUESTED:          0  ISSUED:          0  USEFUL:          0  USELESS:          0
LLC AVERAGE MISS LATENCY: 176.701 cycles
LLC MSHR FULL EVENTS: 0 MSHR MERGE EVENTS: 0
blocks bypassed = 0
blocks filled to llc = 0

DRAM Statistics
 CHANNEL 0
 RQ ROW_BUFFER_HIT:      21808  ROW_BUFFER_MISS:     792983
 DBUS AVG_CONGESTED_CYCLE:     3.7128
 WQ ROW_BUFFER_HIT:      10713  ROW_BUFFER_MISS:      13130  FULL:          0


CPU 0 Branch Prediction Accuracy: 88.9163% MPKI: 15.3833 Average ROB Occupancy at Mispredict: 215.303
Branch type MPKI
BRANCH_DIRECT_JUMP: 0
BRANCH_INDIRECT: 0
BRANCH_CONDITIONAL: 15.3833
BRANCH_DIRECT_CALL: 0
BRANCH_INDIRECT_CALL: 0
BRANCH_RETURN: 0

