
*** ChampSim Multicore Out-of-Order Simulator ***

Warmup Instructions: 40000000
Simulation Instructions: 100000000
Number of CPUs: 1
Off-chip DRAM Size: 4 GiB Channels: 1 Width: 64-bit Data Rate: 3200 MT/s

VirtualMemory physical capacity: 4293914624 num_ppages: 1048319
VirtualMemory page size: 4096 log2_page_size: 12

CPU 0 runs ../../../../ICS/traces//bc-5.trace.gz
CPU 0 Bimodal branch predictor
Basic BTB sets: 1024 ways: 8 indirect buffer size: 4096 RAS size: 64
Heartbeat CPU 0 instructions: 10000001 cycles: 3320908 heartbeat IPC: 3.01122 cumulative IPC: 3.01122 (Simulation time: 0 hr 0 min 59 sec) 
Heartbeat CPU 0 instructions: 20000003 cycles: 6147639 heartbeat IPC: 3.53766 cumulative IPC: 3.25328 (Simulation time: 0 hr 1 min 58 sec) 
Heartbeat CPU 0 instructions: 30000001 cycles: 8982826 heartbeat IPC: 3.5271 cumulative IPC: 3.33971 (Simulation time: 0 hr 2 min 54 sec) 
Heartbeat CPU 0 instructions: 40000001 cycles: 11828408 heartbeat IPC: 3.51422 cumulative IPC: 3.38169 (Simulation time: 0 hr 3 min 52 sec) 

Warmup complete CPU 0 instructions: 40000001 cycles: 11828408 (Simulation time: 0 hr 3 min 52 sec) 

Heartbeat CPU 0 instructions: 50000000 cycles: 24268497 heartbeat IPC: 0.803853 cumulative IPC: 0.803853 (Simulation time: 0 hr 5 min 8 sec) 
Heartbeat CPU 0 instructions: 60000000 cycles: 36055681 heartbeat IPC: 0.848379 cumulative IPC: 0.825516 (Simulation time: 0 hr 6 min 22 sec) 
Heartbeat CPU 0 instructions: 70000004 cycles: 47814561 heartbeat IPC: 0.850421 cumulative IPC: 0.833654 (Simulation time: 0 hr 7 min 35 sec) 
Heartbeat CPU 0 instructions: 80000003 cycles: 59063858 heartbeat IPC: 0.888944 cumulative IPC: 0.846822 (Simulation time: 0 hr 8 min 50 sec) 
Heartbeat CPU 0 instructions: 90000000 cycles: 70292722 heartbeat IPC: 0.890562 cumulative IPC: 0.855223 (Simulation time: 0 hr 9 min 57 sec) 
Heartbeat CPU 0 instructions: 100000002 cycles: 81035250 heartbeat IPC: 0.93088 cumulative IPC: 0.866966 (Simulation time: 0 hr 11 min 9 sec) 
Heartbeat CPU 0 instructions: 110000003 cycles: 92098607 heartbeat IPC: 0.903885 cumulative IPC: 0.872055 (Simulation time: 0 hr 12 min 14 sec) 
Heartbeat CPU 0 instructions: 120000003 cycles: 103093924 heartbeat IPC: 0.909478 cumulative IPC: 0.876563 (Simulation time: 0 hr 13 min 17 sec) 
Heartbeat CPU 0 instructions: 130000004 cycles: 114176717 heartbeat IPC: 0.9023 cumulative IPC: 0.87935 (Simulation time: 0 hr 14 min 25 sec) 
Heartbeat CPU 0 instructions: 140000003 cycles: 125312534 heartbeat IPC: 0.898003 cumulative IPC: 0.881181 (Simulation time: 0 hr 15 min 9 sec) 
Finished CPU 0 instructions: 100000002 cycles: 113484126 cumulative IPC: 0.88118 (Simulation time: 0 hr 15 min 9 sec) 

ChampSim completed all CPUs

Region of Interest Statistics

CPU 0 cumulative IPC: 0.88118 instructions: 100000002 cycles: 113484126
cpu0_DTLB TOTAL     ACCESS:   23144875  HIT:   20616747  MISS:    2528128
cpu0_DTLB LOAD      ACCESS:   17852958  HIT:   16122441  MISS:    1730517
cpu0_DTLB RFO       ACCESS:    5291917  HIT:    4494306  MISS:     797611
cpu0_DTLB PREFETCH  ACCESS:          0  HIT:          0  MISS:          0
cpu0_DTLB WRITEBACK ACCESS:          0  HIT:          0  MISS:          0
cpu0_DTLB TRANSLATION ACCESS:          0  HIT:          0  MISS:          0
cpu0_DTLB PREFETCH  REQUESTED:          0  ISSUED:          0  USEFUL:          0  USELESS:          0
cpu0_DTLB AVERAGE MISS LATENCY: 13.6881 cycles
cpu0_DTLB MSHR FULL EVENTS: 154071 MSHR MERGE EVENTS: 988468
cpu0_ITLB TOTAL     ACCESS:    8700320  HIT:    8700320  MISS:          0
cpu0_ITLB LOAD      ACCESS:    8700320  HIT:    8700320  MISS:          0
cpu0_ITLB RFO       ACCESS:          0  HIT:          0  MISS:          0
cpu0_ITLB PREFETCH  ACCESS:          0  HIT:          0  MISS:          0
cpu0_ITLB WRITEBACK ACCESS:          0  HIT:          0  MISS:          0
cpu0_ITLB TRANSLATION ACCESS:          0  HIT:          0  MISS:          0
cpu0_ITLB PREFETCH  REQUESTED:          0  ISSUED:          0  USEFUL:          0  USELESS:          0
cpu0_ITLB AVERAGE MISS LATENCY: -nan cycles
cpu0_ITLB MSHR FULL EVENTS: 0 MSHR MERGE EVENTS: 0
cpu0_L1I TOTAL     ACCESS:        222  HIT:        222  MISS:          0
cpu0_L1I LOAD      ACCESS:        222  HIT:        222  MISS:          0
cpu0_L1I RFO       ACCESS:          0  HIT:          0  MISS:          0
cpu0_L1I PREFETCH  ACCESS:          0  HIT:          0  MISS:          0
cpu0_L1I WRITEBACK ACCESS:          0  HIT:          0  MISS:          0
cpu0_L1I TRANSLATION ACCESS:          0  HIT:          0  MISS:          0
cpu0_L1I PREFETCH  REQUESTED:          0  ISSUED:          0  USEFUL:          0  USELESS:          0
cpu0_L1I AVERAGE MISS LATENCY: -nan cycles
cpu0_L1I MSHR FULL EVENTS: 0 MSHR MERGE EVENTS: 0
cpu0_STLB TOTAL     ACCESS:    2528128  HIT:    1140062  MISS:    1388066
cpu0_STLB LOAD      ACCESS:    1730517  HIT:     835658  MISS:     894859
cpu0_STLB RFO       ACCESS:     797611  HIT:     304404  MISS:     493207
cpu0_STLB PREFETCH  ACCESS:          0  HIT:          0  MISS:          0
cpu0_STLB WRITEBACK ACCESS:          0  HIT:          0  MISS:          0
cpu0_STLB TRANSLATION ACCESS:          0  HIT:          0  MISS:          0
cpu0_STLB PREFETCH  REQUESTED:          0  ISSUED:          0  USEFUL:          0  USELESS:          0
cpu0_STLB AVERAGE MISS LATENCY: 9.38222 cycles
cpu0_STLB MSHR FULL EVENTS: 0 MSHR MERGE EVENTS: 0
cpu0_L1D TOTAL     ACCESS:   27788617  HIT:   19624613  MISS:    8164004
cpu0_L1D LOAD      ACCESS:   19462159  HIT:   11324841  MISS:    8137318
cpu0_L1D RFO       ACCESS:    7091568  HIT:    7069763  MISS:      21805
cpu0_L1D PREFETCH  ACCESS:          0  HIT:          0  MISS:          0
cpu0_L1D WRITEBACK ACCESS:          0  HIT:          0  MISS:          0
cpu0_L1D TRANSLATION ACCESS:    1234890  HIT:    1230009  MISS:       4881
cpu0_L1D PREFETCH  REQUESTED:          0  ISSUED:          0  USEFUL:          0  USELESS:          0
cpu0_L1D AVERAGE MISS LATENCY: 30.5987 cycles
cpu0_L1D MSHR FULL EVENTS: 1164795 MSHR MERGE EVENTS: 935257
cpu0_L2C TOTAL     ACCESS:   11813033  HIT:    5346923  MISS:    6466083
cpu0_L2C LOAD      ACCESS:    8137315  HIT:    1692915  MISS:    6444400
cpu0_L2C RFO       ACCESS:      21805  HIT:        271  MISS:      21534
cpu0_L2C PREFETCH  ACCESS:          0  HIT:          0  MISS:          0
cpu0_L2C WRITEBACK ACCESS:    3649032  HIT:    3649005  MISS:         27
cpu0_L2C TRANSLATION ACCESS:       4881  HIT:       4732  MISS:        149
cpu0_L2C PREFETCH  REQUESTED:          0  ISSUED:          0  USEFUL:          0  USELESS:          0
cpu0_L2C AVERAGE MISS LATENCY: 24.9806 cycles
cpu0_L2C MSHR FULL EVENTS: 0 MSHR MERGE EVENTS: 0
LLC TOTAL     ACCESS:   12932076  HIT:    6160664  MISS:     305415
LLC LOAD      ACCESS:    6444288  HIT:    6149503  MISS:     294785
LLC RFO       ACCESS:      21534  HIT:      10907  MISS:      10627
LLC PREFETCH  ACCESS:          0  HIT:          0  MISS:          0
LLC WRITEBACK ACCESS:    6466105  HIT:        108  MISS:    6465997
LLC TRANSLATION ACCESS:        149  HIT:        146  MISS:          3
LLC PREFETCH  REQUESTED:          0  ISSUED:          0  USEFUL:          0  USELESS:          0
LLC AVERAGE MISS LATENCY: 85.2815 cycles
LLC MSHR FULL EVENTS: 0 MSHR MERGE EVENTS: 0
blocks bypassed = 0
blocks filled to llc = 0

DRAM Statistics
 CHANNEL 0
 RQ ROW_BUFFER_HIT:     240920  ROW_BUFFER_MISS:      64495
 DBUS AVG_CONGESTED_CYCLE:     3.9418
 WQ ROW_BUFFER_HIT:       1391  ROW_BUFFER_MISS:       3442  FULL:          0


CPU 0 Branch Prediction Accuracy: 93.1676% MPKI: 9.70134 Average ROB Occupancy at Mispredict: 80.1776
Branch type MPKI
BRANCH_DIRECT_JUMP: 0
BRANCH_INDIRECT: 0
BRANCH_CONDITIONAL: 9.70134
BRANCH_DIRECT_CALL: 0
BRANCH_INDIRECT_CALL: 0
BRANCH_RETURN: 0

