
*** ChampSim Multicore Out-of-Order Simulator ***

Warmup Instructions: 40000000
Simulation Instructions: 100000000
Number of CPUs: 1
Off-chip DRAM Size: 4 GiB Channels: 1 Width: 64-bit Data Rate: 3200 MT/s

VirtualMemory physical capacity: 4293914624 num_ppages: 1048319
VirtualMemory page size: 4096 log2_page_size: 12

CPU 0 runs ../../../../ICS/traces//MIS_17000M.champsim.xz
CPU 0 Bimodal branch predictor
Basic BTB sets: 1024 ways: 8 indirect buffer size: 4096 RAS size: 64
Heartbeat CPU 0 instructions: 10000002 cycles: 2686378 heartbeat IPC: 3.72249 cumulative IPC: 3.72249 (Simulation time: 0 hr 0 min 49 sec) 
Heartbeat CPU 0 instructions: 20000002 cycles: 5228127 heartbeat IPC: 3.9343 cumulative IPC: 3.82546 (Simulation time: 0 hr 1 min 34 sec) 
Heartbeat CPU 0 instructions: 30000003 cycles: 7831584 heartbeat IPC: 3.84105 cumulative IPC: 3.83064 (Simulation time: 0 hr 2 min 17 sec) 
Heartbeat CPU 0 instructions: 40000002 cycles: 10523822 heartbeat IPC: 3.71438 cumulative IPC: 3.8009 (Simulation time: 0 hr 3 min 8 sec) 

Warmup complete CPU 0 instructions: 40000002 cycles: 10523822 (Simulation time: 0 hr 3 min 8 sec) 

Heartbeat CPU 0 instructions: 50000003 cycles: 13249055 heartbeat IPC: 3.66941 cumulative IPC: 3.66941 (Simulation time: 0 hr 4 min 15 sec) 
Heartbeat CPU 0 instructions: 60000000 cycles: 18386111 heartbeat IPC: 1.94664 cumulative IPC: 2.54379 (Simulation time: 0 hr 5 min 43 sec) 
Heartbeat CPU 0 instructions: 70000001 cycles: 21575223 heartbeat IPC: 3.13567 cumulative IPC: 2.71459 (Simulation time: 0 hr 6 min 49 sec) 
Heartbeat CPU 0 instructions: 80000001 cycles: 26492748 heartbeat IPC: 2.03354 cumulative IPC: 2.50486 (Simulation time: 0 hr 8 min 7 sec) 
Heartbeat CPU 0 instructions: 90000004 cycles: 29642327 heartbeat IPC: 3.17503 cumulative IPC: 2.61527 (Simulation time: 0 hr 9 min 7 sec) 
Heartbeat CPU 0 instructions: 100000004 cycles: 34350881 heartbeat IPC: 2.12379 cumulative IPC: 2.51815 (Simulation time: 0 hr 10 min 20 sec) 
Heartbeat CPU 0 instructions: 110000003 cycles: 38405096 heartbeat IPC: 2.46657 cumulative IPC: 2.51065 (Simulation time: 0 hr 11 min 34 sec) 
Heartbeat CPU 0 instructions: 120000002 cycles: 42645338 heartbeat IPC: 2.35836 cumulative IPC: 2.49054 (Simulation time: 0 hr 12 min 45 sec) 
Heartbeat CPU 0 instructions: 130000001 cycles: 46249301 heartbeat IPC: 2.77472 cumulative IPC: 2.51921 (Simulation time: 0 hr 13 min 51 sec) 
Heartbeat CPU 0 instructions: 140000001 cycles: 50322250 heartbeat IPC: 2.45522 cumulative IPC: 2.51266 (Simulation time: 0 hr 15 min 2 sec) 
Finished CPU 0 instructions: 100000004 cycles: 39798429 cumulative IPC: 2.51266 (Simulation time: 0 hr 15 min 2 sec) 

ChampSim completed all CPUs

Region of Interest Statistics

CPU 0 cumulative IPC: 2.51266 instructions: 100000004 cycles: 39798429
cpu0_DTLB TOTAL     ACCESS:   24519539  HIT:   24465647  MISS:      53892
cpu0_DTLB LOAD      ACCESS:   13024684  HIT:   13006493  MISS:      18191
cpu0_DTLB RFO       ACCESS:   11494855  HIT:   11459154  MISS:      35701
cpu0_DTLB PREFETCH  ACCESS:          0  HIT:          0  MISS:          0
cpu0_DTLB WRITEBACK ACCESS:          0  HIT:          0  MISS:          0
cpu0_DTLB TRANSLATION ACCESS:          0  HIT:          0  MISS:          0
cpu0_DTLB PREFETCH  REQUESTED:          0  ISSUED:          0  USEFUL:          0  USELESS:          0
cpu0_DTLB AVERAGE MISS LATENCY: 31.9601 cycles
cpu0_DTLB MSHR FULL EVENTS: 27524 MSHR MERGE EVENTS: 149844
cpu0_ITLB TOTAL     ACCESS:    1573903  HIT:    1573903  MISS:          0
cpu0_ITLB LOAD      ACCESS:    1573903  HIT:    1573903  MISS:          0
cpu0_ITLB RFO       ACCESS:          0  HIT:          0  MISS:          0
cpu0_ITLB PREFETCH  ACCESS:          0  HIT:          0  MISS:          0
cpu0_ITLB WRITEBACK ACCESS:          0  HIT:          0  MISS:          0
cpu0_ITLB TRANSLATION ACCESS:          0  HIT:          0  MISS:          0
cpu0_ITLB PREFETCH  REQUESTED:          0  ISSUED:          0  USEFUL:          0  USELESS:          0
cpu0_ITLB AVERAGE MISS LATENCY: -nan cycles
cpu0_ITLB MSHR FULL EVENTS: 0 MSHR MERGE EVENTS: 0
cpu0_L1I TOTAL     ACCESS:        402  HIT:        402  MISS:          0
cpu0_L1I LOAD      ACCESS:        402  HIT:        402  MISS:          0
cpu0_L1I RFO       ACCESS:          0  HIT:          0  MISS:          0
cpu0_L1I PREFETCH  ACCESS:          0  HIT:          0  MISS:          0
cpu0_L1I WRITEBACK ACCESS:          0  HIT:          0  MISS:          0
cpu0_L1I TRANSLATION ACCESS:          0  HIT:          0  MISS:          0
cpu0_L1I PREFETCH  REQUESTED:          0  ISSUED:          0  USEFUL:          0  USELESS:          0
cpu0_L1I AVERAGE MISS LATENCY: -nan cycles
cpu0_L1I MSHR FULL EVENTS: 0 MSHR MERGE EVENTS: 0
cpu0_STLB TOTAL     ACCESS:      53892  HIT:      41737  MISS:      12155
cpu0_STLB LOAD      ACCESS:      18191  HIT:      12387  MISS:       5804
cpu0_STLB RFO       ACCESS:      35701  HIT:      29350  MISS:       6351
cpu0_STLB PREFETCH  ACCESS:          0  HIT:          0  MISS:          0
cpu0_STLB WRITEBACK ACCESS:          0  HIT:          0  MISS:          0
cpu0_STLB TRANSLATION ACCESS:          0  HIT:          0  MISS:          0
cpu0_STLB PREFETCH  REQUESTED:          0  ISSUED:          0  USEFUL:          0  USELESS:          0
cpu0_STLB AVERAGE MISS LATENCY: 102.971 cycles
cpu0_STLB MSHR FULL EVENTS: 0 MSHR MERGE EVENTS: 0
cpu0_L1D TOTAL     ACCESS:   25182691  HIT:   22710498  MISS:    2472193
cpu0_L1D LOAD      ACCESS:    8605239  HIT:    7230607  MISS:    1374632
cpu0_L1D RFO       ACCESS:   16567157  HIT:   15470892  MISS:    1096265
cpu0_L1D PREFETCH  ACCESS:          0  HIT:          0  MISS:          0
cpu0_L1D WRITEBACK ACCESS:          0  HIT:          0  MISS:          0
cpu0_L1D TRANSLATION ACCESS:      10295  HIT:       8999  MISS:       1296
cpu0_L1D PREFETCH  REQUESTED:          0  ISSUED:          0  USEFUL:          0  USELESS:          0
cpu0_L1D AVERAGE MISS LATENCY: 105.521 cycles
cpu0_L1D MSHR FULL EVENTS: 9725748 MSHR MERGE EVENTS: 5537569
cpu0_L2C TOTAL     ACCESS:    3570902  HIT:    1560000  MISS:    2010865
cpu0_L2C LOAD      ACCESS:    1374609  HIT:     396278  MISS:     978331
cpu0_L2C RFO       ACCESS:    1096132  HIT:      63668  MISS:    1032464
cpu0_L2C PREFETCH  ACCESS:          0  HIT:          0  MISS:          0
cpu0_L2C WRITEBACK ACCESS:    1098865  HIT:    1098828  MISS:         37
cpu0_L2C TRANSLATION ACCESS:       1296  HIT:       1226  MISS:         70
cpu0_L2C PREFETCH  REQUESTED:          0  ISSUED:          0  USEFUL:          0  USELESS:          0
cpu0_L2C AVERAGE MISS LATENCY: 117.179 cycles
cpu0_L2C MSHR FULL EVENTS: 0 MSHR MERGE EVENTS: 0
LLC TOTAL     ACCESS:    4021763  HIT:    1551678  MISS:     459186
LLC LOAD      ACCESS:     978328  HIT:     763922  MISS:     214406
LLC RFO       ACCESS:    1032464  HIT:     787686  MISS:     244778
LLC PREFETCH  ACCESS:          0  HIT:          0  MISS:          0
LLC WRITEBACK ACCESS:    2010901  HIT:          2  MISS:    2010899
LLC TRANSLATION ACCESS:         70  HIT:         68  MISS:          2
LLC PREFETCH  REQUESTED:          0  ISSUED:          0  USEFUL:          0  USELESS:          0
LLC AVERAGE MISS LATENCY: 422.184 cycles
LLC MSHR FULL EVENTS: 0 MSHR MERGE EVENTS: 0
blocks bypassed = 0
blocks filled to llc = 0

DRAM Statistics
 CHANNEL 0
 RQ ROW_BUFFER_HIT:     168571  ROW_BUFFER_MISS:     290616
 DBUS AVG_CONGESTED_CYCLE:    3.95436
 WQ ROW_BUFFER_HIT:       3108  ROW_BUFFER_MISS:       5675  FULL:        651


CPU 0 Branch Prediction Accuracy: 98.3856% MPKI: 1.63501 Average ROB Occupancy at Mispredict: 155.582
Branch type MPKI
BRANCH_DIRECT_JUMP: 0
BRANCH_INDIRECT: 0
BRANCH_CONDITIONAL: 1.635
BRANCH_DIRECT_CALL: 0
BRANCH_INDIRECT_CALL: 0
BRANCH_RETURN: 1e-05

