
*** ChampSim Multicore Out-of-Order Simulator ***

Warmup Instructions: 40000000
Simulation Instructions: 100000000
Number of CPUs: 1
Off-chip DRAM Size: 4 GiB Channels: 1 Width: 64-bit Data Rate: 3200 MT/s

VirtualMemory physical capacity: 4293914624 num_ppages: 1048319
VirtualMemory page size: 4096 log2_page_size: 12

CPU 0 runs ../../../../ICS/traces//bc-3.trace.gz
CPU 0 Bimodal branch predictor
Basic BTB sets: 1024 ways: 8 indirect buffer size: 4096 RAS size: 64
Heartbeat CPU 0 instructions: 10000000 cycles: 3274526 heartbeat IPC: 3.05388 cumulative IPC: 3.05388 (Simulation time: 0 hr 1 min 8 sec) 
Heartbeat CPU 0 instructions: 20000000 cycles: 5777967 heartbeat IPC: 3.9945 cumulative IPC: 3.46143 (Simulation time: 0 hr 1 min 55 sec) 
Heartbeat CPU 0 instructions: 30000000 cycles: 8280031 heartbeat IPC: 3.9967 cumulative IPC: 3.62317 (Simulation time: 0 hr 2 min 42 sec) 
Heartbeat CPU 0 instructions: 40000002 cycles: 10781406 heartbeat IPC: 3.9978 cumulative IPC: 3.71009 (Simulation time: 0 hr 3 min 28 sec) 

Warmup complete CPU 0 instructions: 40000002 cycles: 10781406 (Simulation time: 0 hr 3 min 28 sec) 

Heartbeat CPU 0 instructions: 50000000 cycles: 34376206 heartbeat IPC: 0.423822 cumulative IPC: 0.423822 (Simulation time: 0 hr 4 min 39 sec) 
Heartbeat CPU 0 instructions: 60000001 cycles: 57896217 heartbeat IPC: 0.42517 cumulative IPC: 0.424495 (Simulation time: 0 hr 5 min 54 sec) 
Heartbeat CPU 0 instructions: 70000000 cycles: 81434378 heartbeat IPC: 0.424842 cumulative IPC: 0.424611 (Simulation time: 0 hr 7 min 9 sec) 
Heartbeat CPU 0 instructions: 80000000 cycles: 105013951 heartbeat IPC: 0.424096 cumulative IPC: 0.424482 (Simulation time: 0 hr 8 min 37 sec) 
Heartbeat CPU 0 instructions: 90000000 cycles: 128536596 heartbeat IPC: 0.425122 cumulative IPC: 0.42461 (Simulation time: 0 hr 9 min 58 sec) 
Heartbeat CPU 0 instructions: 100000004 cycles: 151993946 heartbeat IPC: 0.426306 cumulative IPC: 0.424891 (Simulation time: 0 hr 11 min 20 sec) 
Heartbeat CPU 0 instructions: 110000002 cycles: 175558432 heartbeat IPC: 0.424367 cumulative IPC: 0.424816 (Simulation time: 0 hr 12 min 48 sec) 
Heartbeat CPU 0 instructions: 120000000 cycles: 199116314 heartbeat IPC: 0.424486 cumulative IPC: 0.424775 (Simulation time: 0 hr 14 min 15 sec) 
Heartbeat CPU 0 instructions: 130000002 cycles: 222773212 heartbeat IPC: 0.42271 cumulative IPC: 0.424545 (Simulation time: 0 hr 15 min 41 sec) 
Heartbeat CPU 0 instructions: 140000001 cycles: 246552858 heartbeat IPC: 0.420528 cumulative IPC: 0.42414 (Simulation time: 0 hr 17 min 6 sec) 
Finished CPU 0 instructions: 100000004 cycles: 235771453 cumulative IPC: 0.42414 (Simulation time: 0 hr 17 min 6 sec) 

ChampSim completed all CPUs

Region of Interest Statistics

CPU 0 cumulative IPC: 0.42414 instructions: 100000004 cycles: 235771453
cpu0_DTLB TOTAL     ACCESS:   20569102  HIT:   16720070  MISS:    3849032
cpu0_DTLB LOAD      ACCESS:   17170573  HIT:   14378269  MISS:    2792304
cpu0_DTLB RFO       ACCESS:    3398529  HIT:    2341801  MISS:    1056728
cpu0_DTLB PREFETCH  ACCESS:          0  HIT:          0  MISS:          0
cpu0_DTLB WRITEBACK ACCESS:          0  HIT:          0  MISS:          0
cpu0_DTLB TRANSLATION ACCESS:          0  HIT:          0  MISS:          0
cpu0_DTLB PREFETCH  REQUESTED:          0  ISSUED:          0  USEFUL:          0  USELESS:          0
cpu0_DTLB AVERAGE MISS LATENCY: 11.9877 cycles
cpu0_DTLB MSHR FULL EVENTS: 43268 MSHR MERGE EVENTS: 660311
cpu0_ITLB TOTAL     ACCESS:   13125210  HIT:   13125210  MISS:          0
cpu0_ITLB LOAD      ACCESS:   13125210  HIT:   13125210  MISS:          0
cpu0_ITLB RFO       ACCESS:          0  HIT:          0  MISS:          0
cpu0_ITLB PREFETCH  ACCESS:          0  HIT:          0  MISS:          0
cpu0_ITLB WRITEBACK ACCESS:          0  HIT:          0  MISS:          0
cpu0_ITLB TRANSLATION ACCESS:          0  HIT:          0  MISS:          0
cpu0_ITLB PREFETCH  REQUESTED:          0  ISSUED:          0  USEFUL:          0  USELESS:          0
cpu0_ITLB AVERAGE MISS LATENCY: -nan cycles
cpu0_ITLB MSHR FULL EVENTS: 0 MSHR MERGE EVENTS: 0
cpu0_L1I TOTAL     ACCESS:        204  HIT:        204  MISS:          0
cpu0_L1I LOAD      ACCESS:        204  HIT:        204  MISS:          0
cpu0_L1I RFO       ACCESS:          0  HIT:          0  MISS:          0
cpu0_L1I PREFETCH  ACCESS:          0  HIT:          0  MISS:          0
cpu0_L1I WRITEBACK ACCESS:          0  HIT:          0  MISS:          0
cpu0_L1I TRANSLATION ACCESS:          0  HIT:          0  MISS:          0
cpu0_L1I PREFETCH  REQUESTED:          0  ISSUED:          0  USEFUL:          0  USELESS:          0
cpu0_L1I AVERAGE MISS LATENCY: -nan cycles
cpu0_L1I MSHR FULL EVENTS: 0 MSHR MERGE EVENTS: 0
cpu0_STLB TOTAL     ACCESS:    3849032  HIT:    2685300  MISS:    1163732
cpu0_STLB LOAD      ACCESS:    2792304  HIT:    2280714  MISS:     511590
cpu0_STLB RFO       ACCESS:    1056728  HIT:     404586  MISS:     652142
cpu0_STLB PREFETCH  ACCESS:          0  HIT:          0  MISS:          0
cpu0_STLB WRITEBACK ACCESS:          0  HIT:          0  MISS:          0
cpu0_STLB TRANSLATION ACCESS:          0  HIT:          0  MISS:          0
cpu0_STLB PREFETCH  REQUESTED:          0  ISSUED:          0  USEFUL:          0  USELESS:          0
cpu0_STLB AVERAGE MISS LATENCY: 10.4276 cycles
cpu0_STLB MSHR FULL EVENTS: 0 MSHR MERGE EVENTS: 0
cpu0_L1D TOTAL     ACCESS:   23484904  HIT:   14669059  MISS:    8815845
cpu0_L1D LOAD      ACCESS:   18815738  HIT:   10029916  MISS:    8785822
cpu0_L1D RFO       ACCESS:    3542668  HIT:    3518839  MISS:      23829
cpu0_L1D PREFETCH  ACCESS:          0  HIT:          0  MISS:          0
cpu0_L1D WRITEBACK ACCESS:          0  HIT:          0  MISS:          0
cpu0_L1D TRANSLATION ACCESS:    1126498  HIT:    1120304  MISS:       6194
cpu0_L1D PREFETCH  REQUESTED:          0  ISSUED:          0  USEFUL:          0  USELESS:          0
cpu0_L1D AVERAGE MISS LATENCY: 29.8122 cycles
cpu0_L1D MSHR FULL EVENTS: 215114 MSHR MERGE EVENTS: 550011
cpu0_L2C TOTAL     ACCESS:   10608809  HIT:    4507373  MISS:    6101367
cpu0_L2C LOAD      ACCESS:    8785822  HIT:    2708229  MISS:    6077593
cpu0_L2C RFO       ACCESS:      23829  HIT:        320  MISS:      23509
cpu0_L2C PREFETCH  ACCESS:          0  HIT:          0  MISS:          0
cpu0_L2C WRITEBACK ACCESS:    1792964  HIT:    1792895  MISS:         69
cpu0_L2C TRANSLATION ACCESS:       6194  HIT:       5929  MISS:        265
cpu0_L2C PREFETCH  REQUESTED:          0  ISSUED:          0  USEFUL:          0  USELESS:          0
cpu0_L2C AVERAGE MISS LATENCY: 27.7607 cycles
cpu0_L2C MSHR FULL EVENTS: 0 MSHR MERGE EVENTS: 0
LLC TOTAL     ACCESS:   12202780  HIT:    5636045  MISS:     465322
LLC LOAD      ACCESS:    6077576  HIT:    5624542  MISS:     453034
LLC RFO       ACCESS:      23509  HIT:      11221  MISS:      12288
LLC PREFETCH  ACCESS:          0  HIT:          0  MISS:          0
LLC WRITEBACK ACCESS:    6101430  HIT:         17  MISS:    6101413
LLC TRANSLATION ACCESS:        265  HIT:        265  MISS:          0
LLC PREFETCH  REQUESTED:          0  ISSUED:          0  USEFUL:          0  USELESS:          0
LLC AVERAGE MISS LATENCY: 89.6473 cycles
LLC MSHR FULL EVENTS: 0 MSHR MERGE EVENTS: 0
blocks bypassed = 0
blocks filled to llc = 0

DRAM Statistics
 CHANNEL 0
 RQ ROW_BUFFER_HIT:     344996  ROW_BUFFER_MISS:     120326
 DBUS AVG_CONGESTED_CYCLE:     3.9542
 WQ ROW_BUFFER_HIT:       4015  ROW_BUFFER_MISS:      19613  FULL:          0


CPU 0 Branch Prediction Accuracy: 86.6685% MPKI: 28.5131 Average ROB Occupancy at Mispredict: 23.074
Branch type MPKI
BRANCH_DIRECT_JUMP: 0
BRANCH_INDIRECT: 0
BRANCH_CONDITIONAL: 28.5131
BRANCH_DIRECT_CALL: 0
BRANCH_INDIRECT_CALL: 0
BRANCH_RETURN: 0

