
*** ChampSim Multicore Out-of-Order Simulator ***

Warmup Instructions: 40000000
Simulation Instructions: 100000000
Number of CPUs: 1
Off-chip DRAM Size: 4 GiB Channels: 1 Width: 64-bit Data Rate: 3200 MT/s

VirtualMemory physical capacity: 4293914624 num_ppages: 1048319
VirtualMemory page size: 4096 log2_page_size: 12

CPU 0 runs ../../../../ICS/traces//Radii_36000M.champsim.xz
CPU 0 Bimodal branch predictor
Basic BTB sets: 1024 ways: 8 indirect buffer size: 4096 RAS size: 64
Heartbeat CPU 0 instructions: 10000000 cycles: 3369148 heartbeat IPC: 2.96811 cumulative IPC: 2.96811 (Simulation time: 0 hr 0 min 47 sec) 
Heartbeat CPU 0 instructions: 20000002 cycles: 6754470 heartbeat IPC: 2.95393 cumulative IPC: 2.961 (Simulation time: 0 hr 1 min 37 sec) 
Heartbeat CPU 0 instructions: 30000000 cycles: 10167992 heartbeat IPC: 2.92952 cumulative IPC: 2.95044 (Simulation time: 0 hr 2 min 27 sec) 
Heartbeat CPU 0 instructions: 40000000 cycles: 13584254 heartbeat IPC: 2.92718 cumulative IPC: 2.94459 (Simulation time: 0 hr 3 min 19 sec) 

Warmup complete CPU 0 instructions: 40000002 cycles: 13584255 (Simulation time: 0 hr 3 min 19 sec) 

Heartbeat CPU 0 instructions: 50000003 cycles: 46553940 heartbeat IPC: 0.303309 cumulative IPC: 0.303309 (Simulation time: 0 hr 4 min 45 sec) 
Heartbeat CPU 0 instructions: 60000003 cycles: 77013824 heartbeat IPC: 0.328301 cumulative IPC: 0.31531 (Simulation time: 0 hr 5 min 52 sec) 
Heartbeat CPU 0 instructions: 70000003 cycles: 111538726 heartbeat IPC: 0.289646 cumulative IPC: 0.306265 (Simulation time: 0 hr 6 min 57 sec) 
Heartbeat CPU 0 instructions: 80000004 cycles: 149028185 heartbeat IPC: 0.266742 cumulative IPC: 0.295325 (Simulation time: 0 hr 8 min 14 sec) 
Heartbeat CPU 0 instructions: 90000003 cycles: 187352379 heartbeat IPC: 0.260932 cumulative IPC: 0.28774 (Simulation time: 0 hr 9 min 36 sec) 
Heartbeat CPU 0 instructions: 100000004 cycles: 224708454 heartbeat IPC: 0.267694 cumulative IPC: 0.284193 (Simulation time: 0 hr 10 min 59 sec) 
Heartbeat CPU 0 instructions: 110000001 cycles: 262144178 heartbeat IPC: 0.267124 cumulative IPC: 0.281622 (Simulation time: 0 hr 12 min 29 sec) 
Heartbeat CPU 0 instructions: 120000002 cycles: 298470271 heartbeat IPC: 0.275284 cumulative IPC: 0.280814 (Simulation time: 0 hr 13 min 32 sec) 
Heartbeat CPU 0 instructions: 130000001 cycles: 333385130 heartbeat IPC: 0.286411 cumulative IPC: 0.281425 (Simulation time: 0 hr 14 min 28 sec) 
Heartbeat CPU 0 instructions: 140000002 cycles: 344957434 heartbeat IPC: 0.864132 cumulative IPC: 0.301775 (Simulation time: 0 hr 15 min 0 sec) 
Finished CPU 0 instructions: 100000000 cycles: 331373179 cumulative IPC: 0.301775 (Simulation time: 0 hr 15 min 0 sec) 

ChampSim completed all CPUs

Region of Interest Statistics

CPU 0 cumulative IPC: 0.301775 instructions: 100000000 cycles: 331373179
cpu0_DTLB TOTAL     ACCESS:   27848504  HIT:   25139874  MISS:    2708630
cpu0_DTLB LOAD      ACCESS:   23334181  HIT:   20646467  MISS:    2687714
cpu0_DTLB RFO       ACCESS:    4514323  HIT:    4493407  MISS:      20916
cpu0_DTLB PREFETCH  ACCESS:          0  HIT:          0  MISS:          0
cpu0_DTLB WRITEBACK ACCESS:          0  HIT:          0  MISS:          0
cpu0_DTLB TRANSLATION ACCESS:          0  HIT:          0  MISS:          0
cpu0_DTLB PREFETCH  REQUESTED:          0  ISSUED:          0  USEFUL:          0  USELESS:          0
cpu0_DTLB AVERAGE MISS LATENCY: 12.1478 cycles
cpu0_DTLB MSHR FULL EVENTS: 26594 MSHR MERGE EVENTS: 120775
cpu0_ITLB TOTAL     ACCESS:   10152922  HIT:   10152916  MISS:          6
cpu0_ITLB LOAD      ACCESS:   10152922  HIT:   10152916  MISS:          6
cpu0_ITLB RFO       ACCESS:          0  HIT:          0  MISS:          0
cpu0_ITLB PREFETCH  ACCESS:          0  HIT:          0  MISS:          0
cpu0_ITLB WRITEBACK ACCESS:          0  HIT:          0  MISS:          0
cpu0_ITLB TRANSLATION ACCESS:          0  HIT:          0  MISS:          0
cpu0_ITLB PREFETCH  REQUESTED:          0  ISSUED:          0  USEFUL:          0  USELESS:          0
cpu0_ITLB AVERAGE MISS LATENCY: 280 cycles
cpu0_ITLB MSHR FULL EVENTS: 0 MSHR MERGE EVENTS: 0
cpu0_L1I TOTAL     ACCESS:        106  HIT:         55  MISS:         51
cpu0_L1I LOAD      ACCESS:        106  HIT:         55  MISS:         51
cpu0_L1I RFO       ACCESS:          0  HIT:          0  MISS:          0
cpu0_L1I PREFETCH  ACCESS:          0  HIT:          0  MISS:          0
cpu0_L1I WRITEBACK ACCESS:          0  HIT:          0  MISS:          0
cpu0_L1I TRANSLATION ACCESS:          0  HIT:          0  MISS:          0
cpu0_L1I PREFETCH  REQUESTED:          0  ISSUED:          0  USEFUL:          0  USELESS:          0
cpu0_L1I AVERAGE MISS LATENCY: 175.431 cycles
cpu0_L1I MSHR FULL EVENTS: 0 MSHR MERGE EVENTS: 0
cpu0_STLB TOTAL     ACCESS:    2708636  HIT:    2322733  MISS:     385903
cpu0_STLB LOAD      ACCESS:    2687720  HIT:    2305768  MISS:     381952
cpu0_STLB RFO       ACCESS:      20916  HIT:      16965  MISS:       3951
cpu0_STLB PREFETCH  ACCESS:          0  HIT:          0  MISS:          0
cpu0_STLB WRITEBACK ACCESS:          0  HIT:          0  MISS:          0
cpu0_STLB TRANSLATION ACCESS:          0  HIT:          0  MISS:          0
cpu0_STLB PREFETCH  REQUESTED:          0  ISSUED:          0  USEFUL:          0  USELESS:          0
cpu0_STLB AVERAGE MISS LATENCY: 22.4098 cycles
cpu0_STLB MSHR FULL EVENTS: 0 MSHR MERGE EVENTS: 0
cpu0_L1D TOTAL     ACCESS:   26215336  HIT:   21673436  MISS:    4541900
cpu0_L1D LOAD      ACCESS:   20961256  HIT:   16457914  MISS:    4503342
cpu0_L1D RFO       ACCESS:    4879114  HIT:    4851108  MISS:      28006
cpu0_L1D PREFETCH  ACCESS:          0  HIT:          0  MISS:          0
cpu0_L1D WRITEBACK ACCESS:          0  HIT:          0  MISS:          0
cpu0_L1D TRANSLATION ACCESS:     374966  HIT:     364414  MISS:      10552
cpu0_L1D PREFETCH  REQUESTED:          0  ISSUED:          0  USEFUL:          0  USELESS:          0
cpu0_L1D AVERAGE MISS LATENCY: 86.2474 cycles
cpu0_L1D MSHR FULL EVENTS: 39671 MSHR MERGE EVENTS: 1370237
cpu0_L2C TOTAL     ACCESS:    4828165  HIT:     896413  MISS:    3931743
cpu0_L2C LOAD      ACCESS:    4503393  HIT:     599896  MISS:    3903497
cpu0_L2C RFO       ACCESS:      28006  HIT:         11  MISS:      27995
cpu0_L2C PREFETCH  ACCESS:          0  HIT:          0  MISS:          0
cpu0_L2C WRITEBACK ACCESS:     286214  HIT:     286205  MISS:          9
cpu0_L2C TRANSLATION ACCESS:      10552  HIT:      10301  MISS:        251
cpu0_L2C PREFETCH  REQUESTED:          0  ISSUED:          0  USEFUL:          0  USELESS:          0
cpu0_L2C AVERAGE MISS LATENCY: 87.8413 cycles
cpu0_L2C MSHR FULL EVENTS: 0 MSHR MERGE EVENTS: 0
LLC TOTAL     ACCESS:    7863490  HIT:    2270923  MISS:    1660820
LLC LOAD      ACCESS:    3903494  HIT:    2270675  MISS:    1632819
LLC RFO       ACCESS:      27995  HIT:          0  MISS:      27995
LLC PREFETCH  ACCESS:          0  HIT:          0  MISS:          0
LLC WRITEBACK ACCESS:    3931750  HIT:          3  MISS:    3931747
LLC TRANSLATION ACCESS:        251  HIT:        245  MISS:          6
LLC PREFETCH  REQUESTED:          0  ISSUED:          0  USEFUL:          0  USELESS:          0
LLC AVERAGE MISS LATENCY: 159.234 cycles
LLC MSHR FULL EVENTS: 0 MSHR MERGE EVENTS: 0
blocks bypassed = 0
blocks filled to llc = 0

DRAM Statistics
 CHANNEL 0
 RQ ROW_BUFFER_HIT:     164975  ROW_BUFFER_MISS:    1495845
 DBUS AVG_CONGESTED_CYCLE:    3.65317
 WQ ROW_BUFFER_HIT:     104776  ROW_BUFFER_MISS:      93789  FULL:          0


CPU 0 Branch Prediction Accuracy: 85.1756% MPKI: 36.0741 Average ROB Occupancy at Mispredict: 26.1093
Branch type MPKI
BRANCH_DIRECT_JUMP: 9e-05
BRANCH_INDIRECT: 0
BRANCH_CONDITIONAL: 36.0739
BRANCH_DIRECT_CALL: 7e-05
BRANCH_INDIRECT_CALL: 0
BRANCH_RETURN: 6e-05

